<nodes>
	<node id="1" x="0.0" y="0.0"/>
	<node id="2" x="0.0" y="-400.0"/>
	
	<node id="3" x="-200.0" y="-200.0"/>
	<node id="4" x="200.0" y="-200.0"/>
</nodes>