<?xml version="1.0" encoding="UTF-8"?>

<!-- generated on 04/12/21 02:47:03 by Eclipse SUMO netedit Version v1_8_0+1925-6bf04e0fef
<configuration xmlns:xsi="http://www.w3.org/2001/XMLSchema-instance" xsi:noNamespaceSchemaLocation="http://sumo.dlr.de/xsd/netconvertConfiguration.xsd">

    <input>
        <sumo-net-file value="C:\Users\Caolan\Desktop\Final%20Year%20Project\Simulations\Sim1\Galway\galway.net.xml"/>
    </input>

    <output>
        <output-file value="C:\Users\Caolan\Desktop\Final%20Year%20Project\Simulations\Sim1\Galway\galwayclean.net.xml"/>
    </output>

    <processing>
        <geometry.min-radius.fix.railways value="false"/>
        <geometry.max-grade.fix value="false"/>
        <offset.disable-normalization value="true"/>
        <lefthand value="true"/>
    </processing>

    <junctions>
        <no-turnarounds value="true"/>
        <junctions.corner-detail value="5"/>
        <junctions.limit-turn-speed value="5.5"/>
        <rectangular-lane-cut value="false"/>
    </junctions>

    <pedestrian>
        <walkingareas value="false"/>
    </pedestrian>

    <report>
        <aggregate-warnings value="5"/>
    </report>

</configuration>
-->

<net version="1.9" junctionCornerDetail="5" lefthand="true" limitTurnSpeed="5.50" xmlns:xsi="http://www.w3.org/2001/XMLSchema-instance" xsi:noNamespaceSchemaLocation="http://sumo.dlr.de/xsd/net_file.xsd">

    <location netOffset="-496289.32,-5902492.63" convBoundary="0.00,0.00,3834.17,2976.09" origBoundary="-9.055657,53.271673,-8.987058,53.298420" projParameter="+proj=utm +zone=29 +ellps=WGS84 +datum=WGS84 +units=m +no_defs"/>

    <type id="highway.bridleway" priority="1" numLanes="1" speed="2.78" allow="pedestrian" oneway="1" width="2.00"/>
    <type id="highway.bus_guideway" priority="1" numLanes="1" speed="27.78" allow="bus" oneway="1"/>
    <type id="highway.cycleway" priority="1" numLanes="1" speed="8.33" allow="bicycle" oneway="1" width="1.00"/>
    <type id="highway.footway" priority="1" numLanes="1" speed="2.78" allow="pedestrian" oneway="1" width="2.00"/>
    <type id="highway.ford" priority="1" numLanes="1" speed="2.78" allow="army" oneway="1"/>
    <type id="highway.living_street" priority="2" numLanes="1" speed="2.78" disallow="tram rail_urban rail rail_electric rail_fast ship" oneway="1"/>
    <type id="highway.motorway" priority="14" numLanes="2" speed="39.44" allow="private emergency authority army vip passenger hov taxi bus coach delivery truck trailer motorcycle evehicle custom1 custom2" oneway="1"/>
    <type id="highway.motorway_link" priority="9" numLanes="1" speed="22.22" allow="private emergency authority army vip passenger hov taxi bus coach delivery truck trailer motorcycle evehicle custom1 custom2" oneway="1"/>
    <type id="highway.path" priority="1" numLanes="1" speed="2.78" allow="pedestrian bicycle" oneway="1" width="2.00"/>
    <type id="highway.pedestrian" priority="1" numLanes="1" speed="2.78" allow="pedestrian" oneway="1" width="2.00"/>
    <type id="highway.primary" priority="12" numLanes="2" speed="27.78" disallow="tram rail_urban rail rail_electric rail_fast ship" oneway="1"/>
    <type id="highway.primary_link" priority="7" numLanes="1" speed="22.22" disallow="tram rail_urban rail rail_electric rail_fast ship" oneway="1"/>
    <type id="highway.raceway" priority="15" numLanes="2" speed="83.33" allow="vip" oneway="1"/>
    <type id="highway.residential" priority="3" numLanes="1" speed="13.89" disallow="tram rail_urban rail rail_electric rail_fast ship" oneway="1"/>
    <type id="highway.secondary" priority="11" numLanes="1" speed="27.78" disallow="tram rail_urban rail rail_electric rail_fast ship" oneway="1"/>
    <type id="highway.secondary_link" priority="6" numLanes="1" speed="22.22" disallow="tram rail_urban rail rail_electric rail_fast ship" oneway="1"/>
    <type id="highway.service" priority="1" numLanes="1" speed="5.56" allow="pedestrian delivery bicycle" oneway="1"/>
    <type id="highway.stairs" priority="1" numLanes="1" speed="1.39" allow="pedestrian" oneway="1" width="2.00"/>
    <type id="highway.step" priority="1" numLanes="1" speed="1.39" allow="pedestrian" oneway="1" width="2.00"/>
    <type id="highway.steps" priority="1" numLanes="1" speed="1.39" allow="pedestrian" oneway="1" width="2.00"/>
    <type id="highway.tertiary" priority="10" numLanes="1" speed="22.22" disallow="tram rail_urban rail rail_electric rail_fast ship" oneway="1"/>
    <type id="highway.tertiary_link" priority="5" numLanes="1" speed="22.22" disallow="tram rail_urban rail rail_electric rail_fast ship" oneway="1"/>
    <type id="highway.track" priority="1" numLanes="1" speed="5.56" allow="pedestrian motorcycle moped bicycle" oneway="1"/>
    <type id="highway.trunk" priority="13" numLanes="2" speed="27.78" disallow="pedestrian bicycle tram rail_urban rail rail_electric rail_fast ship" oneway="1"/>
    <type id="highway.trunk_link" priority="8" numLanes="1" speed="22.22" disallow="pedestrian bicycle tram rail_urban rail rail_electric rail_fast ship" oneway="1"/>
    <type id="highway.unclassified" priority="4" numLanes="1" speed="13.89" disallow="tram rail_urban rail rail_electric rail_fast ship" oneway="1"/>
    <type id="highway.unsurfaced" priority="1" numLanes="1" speed="8.33" disallow="tram rail_urban rail rail_electric rail_fast ship" oneway="1"/>
    <type id="railway.highspeed" priority="21" numLanes="1" speed="69.44" allow="rail_fast" oneway="1"/>
    <type id="railway.light_rail" priority="19" numLanes="1" speed="27.78" allow="rail_urban" oneway="1"/>
    <type id="railway.preserved" priority="16" numLanes="1" speed="27.78" allow="rail" oneway="1"/>
    <type id="railway.rail" priority="20" numLanes="1" speed="44.44" allow="rail" oneway="1"/>
    <type id="railway.subway" priority="18" numLanes="1" speed="27.78" allow="rail_urban" oneway="1"/>
    <type id="railway.tram" priority="17" numLanes="1" speed="13.89" allow="tram" oneway="1"/>

    <edge id=":1109725179_0" function="internal">
        <lane id=":1109725179_0_0" index="0" allow="pedestrian delivery bicycle" speed="6.87" length="10.01" shape="2524.66,367.08 2522.27,368.42 2520.86,370.21 2520.43,372.44 2520.99,375.10"/>
    </edge>
    <edge id=":1109725179_1" function="internal">
        <lane id=":1109725179_1_0" index="0" allow="pedestrian delivery bicycle" speed="5.05" length="4.93" shape="2524.00,374.01 2523.73,372.70 2523.94,371.60 2524.64,370.72 2525.82,370.06"/>
    </edge>
    <edge id=":1109725194_0" function="internal">
        <lane id=":1109725194_0_0" index="0" disallow="tram rail_urban rail rail_electric rail_fast ship" speed="6.57" length="9.04" shape="2249.93,362.24 2247.86,363.67 2245.84,364.13 2243.87,363.62 2241.95,362.14"/>
    </edge>
    <edge id=":1109725194_1" function="internal">
        <lane id=":1109725194_1_0" index="0" disallow="tram rail_urban rail rail_electric rail_fast ship" speed="7.92" length="14.35" shape="2249.93,362.24 2247.46,365.27 2246.61,368.36 2247.39,371.50 2249.79,374.70"/>
    </edge>
    <edge id=":1109725194_2" function="internal">
        <lane id=":1109725194_2_0" index="0" disallow="tram rail_urban rail rail_electric rail_fast ship" speed="6.47" length="9.20" shape="2252.06,372.44 2250.54,370.41 2250.07,368.40 2250.64,366.42 2252.25,364.46"/>
    </edge>
    <edge id=":1109725194_3" function="internal">
        <lane id=":1109725194_3_0" index="0" disallow="tram rail_urban rail rail_electric rail_fast ship" speed="8.33" length="14.43" shape="2252.06,372.44 2241.95,362.14"/>
    </edge>
    <edge id=":1109725194_4" function="internal">
        <lane id=":1109725194_4_0" index="0" disallow="tram rail_urban rail rail_electric rail_fast ship" speed="8.33" length="14.48" shape="2239.65,364.37 2249.79,374.70"/>
    </edge>
    <edge id=":1109725194_5" function="internal">
        <lane id=":1109725194_5_0" index="0" disallow="tram rail_urban rail rail_electric rail_fast ship" speed="8.10" length="14.28" shape="2239.65,364.37 2242.67,366.68 2245.78,367.47 2248.97,366.73 2252.25,364.46"/>
    </edge>
    <edge id=":1109725223_0" function="internal">
        <lane id=":1109725223_0_0" index="0" disallow="tram rail_urban rail rail_electric rail_fast ship" speed="8.33" length="14.35" shape="2477.44,265.84 2475.46,251.62"/>
    </edge>
    <edge id=":1109725223_1" function="internal">
        <lane id=":1109725223_1_0" index="0" disallow="tram rail_urban rail rail_electric rail_fast ship" speed="8.07" length="14.19" shape="2477.44,265.84 2476.35,262.14 2474.33,259.65 2471.36,258.37 2467.46,258.29"/>
    </edge>
    <edge id=":1109725223_2" function="internal">
        <lane id=":1109725223_2_0" index="0" disallow="tram rail_urban rail rail_electric rail_fast ship" speed="6.59" length="9.12" shape="2467.84,261.47 2470.36,261.52 2472.27,262.34 2473.58,263.93 2474.28,266.29"/>
    </edge>
    <edge id=":1109725223_3" function="internal">
        <lane id=":1109725223_3_0" index="0" disallow="tram rail_urban rail rail_electric rail_fast ship" speed="7.98" length="14.24" shape="2467.84,261.47 2471.62,260.46 2474.15,258.48 2475.43,255.53 2475.46,251.62"/>
    </edge>
    <edge id=":1109725223_4" function="internal">
        <lane id=":1109725223_4_0" index="0" disallow="tram rail_urban rail rail_electric rail_fast ship" speed="6.48" length="9.03" shape="2472.29,252.05 2472.27,254.53 2471.46,256.40 2469.85,257.65 2467.46,258.29"/>
    </edge>
    <edge id=":1109725223_5" function="internal">
        <lane id=":1109725223_5_0" index="0" disallow="tram rail_urban rail rail_electric rail_fast ship" speed="8.33" length="14.38" shape="2472.29,252.05 2474.28,266.29"/>
    </edge>
    <edge id=":1109725254_0" function="internal">
        <lane id=":1109725254_0_0" index="0" disallow="tram rail_urban rail rail_electric rail_fast ship" speed="8.33" length="14.37" shape="2468.85,201.03 2467.08,186.76"/>
    </edge>
    <edge id=":1109725254_1" function="internal">
        <lane id=":1109725254_1_0" index="0" disallow="tram rail_urban rail rail_electric rail_fast ship" speed="8.02" length="14.18" shape="2468.85,201.03 2467.82,197.29 2465.84,194.77 2462.91,193.47 2459.02,193.38"/>
    </edge>
    <edge id=":1109725254_2" function="internal">
        <lane id=":1109725254_2_0" index="0" disallow="tram rail_urban rail rail_electric rail_fast ship" speed="6.53" length="9.04" shape="2459.41,196.55 2461.89,196.61 2463.76,197.44 2465.02,199.05 2465.67,201.43"/>
    </edge>
    <edge id=":1109725254_3" function="internal">
        <lane id=":1109725254_3_0" index="0" disallow="tram rail_urban rail rail_electric rail_fast ship" speed="8.00" length="14.20" shape="2459.41,196.55 2463.16,195.55 2465.69,193.59 2467.00,190.66 2467.08,186.76"/>
    </edge>
    <edge id=":1109725254_4" function="internal">
        <lane id=":1109725254_4_0" index="0" disallow="tram rail_urban rail rail_electric rail_fast ship" speed="6.50" length="9.04" shape="2463.91,187.15 2463.85,189.62 2463.02,191.49 2461.41,192.74 2459.02,193.38"/>
    </edge>
    <edge id=":1109725254_5" function="internal">
        <lane id=":1109725254_5_0" index="0" disallow="tram rail_urban rail rail_electric rail_fast ship" speed="8.33" length="14.39" shape="2463.91,187.15 2465.67,201.43"/>
    </edge>
    <edge id=":1109725265_0" function="internal">
        <lane id=":1109725265_0_0" index="0" disallow="tram rail_urban rail rail_electric rail_fast ship" speed="6.54" length="9.06" shape="2361.31,271.03 2358.83,270.98 2356.95,270.15 2355.68,268.55 2355.01,266.16"/>
    </edge>
    <edge id=":1109725265_1" function="internal">
        <lane id=":1109725265_1_0" index="0" disallow="tram rail_urban rail rail_electric rail_fast ship" speed="8.00" length="14.20" shape="2361.31,271.03 2357.55,272.04 2355.02,274.01 2353.71,276.94 2353.63,280.83"/>
    </edge>
    <edge id=":1109725265_2" function="internal">
        <lane id=":1109725265_2_0" index="0" disallow="tram rail_urban rail rail_electric rail_fast ship" speed="6.50" length="9.03" shape="2356.81,280.44 2356.86,277.96 2357.69,276.10 2359.30,274.85 2361.70,274.21"/>
    </edge>
    <edge id=":1109725265_3" function="internal">
        <lane id=":1109725265_3_0" index="0" disallow="tram rail_urban rail rail_electric rail_fast ship" speed="8.33" length="14.39" shape="2356.81,280.44 2355.01,266.16"/>
    </edge>
    <edge id=":1109725265_4" function="internal">
        <lane id=":1109725265_4_0" index="0" disallow="tram rail_urban rail rail_electric rail_fast ship" speed="8.33" length="14.36" shape="2351.84,266.58 2353.63,280.83"/>
    </edge>
    <edge id=":1109725265_5" function="internal">
        <lane id=":1109725265_5_0" index="0" disallow="tram rail_urban rail rail_electric rail_fast ship" speed="8.03" length="14.18" shape="2351.84,266.58 2352.88,270.31 2354.87,272.83 2357.81,274.13 2361.70,274.21"/>
    </edge>
    <edge id=":1109725286_0" function="internal">
        <lane id=":1109725286_0_0" index="0" disallow="tram rail_urban rail rail_electric rail_fast ship" speed="6.55" length="9.09" shape="2331.58,208.48 2329.08,208.42 2327.19,207.59 2325.91,205.99 2325.24,203.61"/>
    </edge>
    <edge id=":1109725286_1" function="internal">
        <lane id=":1109725286_1_0" index="0" disallow="tram rail_urban rail rail_electric rail_fast ship" speed="7.98" length="14.24" shape="2331.58,208.48 2327.80,209.48 2325.27,211.46 2323.98,214.40 2323.93,218.30"/>
    </edge>
    <edge id=":1109725286_2" function="internal">
        <lane id=":1109725286_2_0" index="0" disallow="tram rail_urban rail rail_electric rail_fast ship" speed="6.48" length="9.03" shape="2327.10,217.89 2327.13,215.41 2327.95,213.55 2329.56,212.29 2331.95,211.66"/>
    </edge>
    <edge id=":1109725286_3" function="internal">
        <lane id=":1109725286_3_0" index="0" disallow="tram rail_urban rail rail_electric rail_fast ship" speed="8.33" length="14.40" shape="2327.10,217.89 2325.24,203.61"/>
    </edge>
    <edge id=":1109725286_4" function="internal">
        <lane id=":1109725286_4_0" index="0" disallow="tram rail_urban rail rail_electric rail_fast ship" speed="8.33" length="14.40" shape="2322.07,204.02 2323.93,218.30"/>
    </edge>
    <edge id=":1109725286_5" function="internal">
        <lane id=":1109725286_5_0" index="0" disallow="tram rail_urban rail rail_electric rail_fast ship" speed="8.04" length="14.21" shape="2322.07,204.02 2323.11,207.75 2325.10,210.27 2328.05,211.57 2331.95,211.66"/>
    </edge>
    <edge id=":1109725321_0" function="internal">
        <lane id=":1109725321_0_0" index="0" disallow="tram rail_urban rail rail_electric rail_fast ship" speed="6.59" length="9.06" shape="2153.85,243.76 2151.56,244.74 2149.49,244.78 2147.65,243.88 2146.03,242.04"/>
    </edge>
    <edge id=":1109725321_1" function="internal">
        <lane id=":1109725321_1_0" index="0" disallow="tram rail_urban rail rail_electric rail_fast ship" speed="7.91" length="14.26" shape="2153.85,243.76 2150.85,246.22 2149.41,249.06 2149.55,252.28 2151.25,255.86"/>
    </edge>
    <edge id=":1109725321_2" function="internal">
        <lane id=":1109725321_2_0" index="0" disallow="tram rail_urban rail rail_electric rail_fast ship" speed="6.42" length="9.03" shape="2153.92,254.10 2152.85,251.84 2152.77,249.81 2153.68,248.01 2155.59,246.44"/>
    </edge>
    <edge id=":1109725321_3" function="internal">
        <lane id=":1109725321_3_0" index="0" disallow="tram rail_urban rail rail_electric rail_fast ship" speed="8.33" length="14.41" shape="2153.92,254.10 2146.03,242.04"/>
    </edge>
    <edge id=":1109725321_4" function="internal">
        <lane id=":1109725321_4_0" index="0" disallow="tram rail_urban rail rail_electric rail_fast ship" speed="8.33" length="14.43" shape="2143.35,243.79 2151.25,255.86"/>
    </edge>
    <edge id=":1109725321_5" function="internal">
        <lane id=":1109725321_5_0" index="0" disallow="tram rail_urban rail rail_electric rail_fast ship" speed="8.10" length="14.18" shape="2143.35,243.79 2145.87,246.66 2148.75,248.05 2151.99,247.98 2155.59,246.44"/>
    </edge>
    <edge id=":1109725373_0" function="internal">
        <lane id=":1109725373_0_0" index="0" disallow="tram rail_urban rail rail_electric rail_fast ship" speed="6.28" length="9.04" shape="2623.84,291.68 2621.34,291.95 2619.43,291.32 2618.13,289.79 2617.44,287.37"/>
    </edge>
    <edge id=":1109725373_1" function="internal">
        <lane id=":1109725373_1_0" index="0" disallow="tram rail_urban rail rail_electric rail_fast ship" speed="8.33" length="14.44" shape="2623.84,291.68 2609.84,295.24"/>
    </edge>
    <edge id=":1109725373_2" function="internal">
        <lane id=":1109725373_2_0" index="0" disallow="tram rail_urban rail rail_electric rail_fast ship" speed="8.33" length="14.44" shape="2610.63,298.34 2624.63,294.78"/>
    </edge>
    <edge id=":1109725373_3" function="internal">
        <lane id=":1109725373_3_0" index="0" disallow="tram rail_urban rail rail_electric rail_fast ship" speed="8.33" length="14.38" shape="2610.63,298.34 2614.07,296.89 2616.35,294.58 2617.47,291.41 2617.44,287.37"/>
    </edge>
    <edge id=":1109725373_4" function="internal">
        <lane id=":1109725373_4_0" index="0" disallow="tram rail_urban rail rail_electric rail_fast ship" speed="6.97" length="9.62" shape="2614.27,287.81 2614.31,290.56 2613.58,292.71 2612.10,294.27 2609.84,295.24"/>
    </edge>
    <edge id=":1109725373_5" function="internal">
        <lane id=":1109725373_5_0" index="0" disallow="tram rail_urban rail rail_electric rail_fast ship" speed="7.81" length="14.64" shape="2614.27,287.81 2615.40,291.73 2617.50,294.19 2620.58,295.21 2624.63,294.78"/>
    </edge>
    <edge id=":1109725392_0" function="internal">
        <lane id=":1109725392_0_0" index="0" disallow="tram rail_urban rail rail_electric rail_fast ship" speed="8.33" length="13.97" shape="2552.74,292.50 2551.46,289.15 2550.31,285.95 2549.27,282.72 2548.32,279.26"/>
    </edge>
    <edge id=":1109725392_1" function="internal">
        <lane id=":1109725392_1_0" index="0" disallow="tram rail_urban rail rail_electric rail_fast ship" speed="8.33" length="14.12" shape="2552.74,292.50 2550.90,289.28 2548.38,287.28 2545.18,286.52 2541.30,287.00"/>
    </edge>
    <edge id=":1109725392_2" function="internal">
        <lane id=":1109725392_2_0" index="0" disallow="tram rail_urban rail rail_electric rail_fast ship" speed="6.92" length="9.40" shape="2542.11,290.09 2544.72,289.77 2546.86,290.25 2548.55,291.55 2549.77,293.67"/>
    </edge>
    <edge id=":1109725392_3" function="internal">
        <lane id=":1109725392_3_0" index="0" disallow="tram rail_urban rail rail_electric rail_fast ship" speed="8.03" length="14.22" shape="2542.11,290.09 2545.64,288.61 2547.86,286.30 2548.75,283.19 2548.32,279.26"/>
    </edge>
    <edge id=":1109725392_4" function="internal">
        <lane id=":1109725392_4_0" index="0" disallow="tram rail_urban rail rail_electric rail_fast ship" speed="6.51" length="9.00" shape="2545.25,280.15 2545.52,282.63 2544.95,284.60 2543.54,286.05 2541.30,287.00"/>
    </edge>
    <edge id=":1109725392_5" function="internal">
        <lane id=":1109725392_5_0" index="0" disallow="tram rail_urban rail rail_electric rail_fast ship" speed="8.33" length="14.27" shape="2545.25,280.15 2546.21,283.65 2547.28,286.98 2548.46,290.27 2549.77,293.67"/>
    </edge>
    <edge id=":1109725395_0" function="internal">
        <lane id=":1109725395_0_0" index="0" disallow="tram rail_urban rail rail_electric rail_fast ship" speed="8.33" length="14.21" shape="2541.08,228.25 2539.30,214.15"/>
    </edge>
    <edge id=":1109725395_1" function="internal">
        <lane id=":1109725395_1_0" index="0" disallow="tram rail_urban rail rail_electric rail_fast ship" speed="8.01" length="14.09" shape="2541.08,228.25 2540.02,224.55 2538.02,222.06 2535.10,220.78 2531.24,220.71"/>
    </edge>
    <edge id=":1109725395_2" function="internal">
        <lane id=":1109725395_2_0" index="0" disallow="tram rail_urban rail rail_electric rail_fast ship" speed="6.52" length="8.98" shape="2531.64,223.89 2534.10,223.93 2535.96,224.74 2537.23,226.33 2537.91,228.69"/>
    </edge>
    <edge id=":1109725395_3" function="internal">
        <lane id=":1109725395_3_0" index="0" disallow="tram rail_urban rail rail_electric rail_fast ship" speed="8.01" length="14.10" shape="2531.64,223.89 2535.36,222.87 2537.88,220.91 2539.19,218.01 2539.30,214.15"/>
    </edge>
    <edge id=":1109725395_4" function="internal">
        <lane id=":1109725395_4_0" index="0" disallow="tram rail_urban rail rail_electric rail_fast ship" speed="6.51" length="8.97" shape="2536.12,214.51 2536.05,216.97 2535.22,218.82 2533.61,220.07 2531.24,220.71"/>
    </edge>
    <edge id=":1109725395_5" function="internal">
        <lane id=":1109725395_5_0" index="0" disallow="tram rail_urban rail rail_electric rail_fast ship" speed="8.33" length="14.29" shape="2536.12,214.51 2537.91,228.69"/>
    </edge>
    <edge id=":1109773252_0" function="internal">
        <lane id=":1109773252_0_0" index="0" disallow="tram rail_urban rail rail_electric rail_fast ship" speed="13.89" length="14.36" shape="391.05,1900.52 377.34,1904.81"/>
    </edge>
    <edge id=":1109773252_1" function="internal">
        <lane id=":1109773252_1_0" index="0" disallow="tram rail_urban rail rail_electric rail_fast ship" speed="8.35" length="4.86" shape="391.05,1900.52 388.02,1902.25 387.25,1903.39"/>
    </edge>
    <edge id=":1109773252_6" function="internal">
        <lane id=":1109773252_6_0" index="0" disallow="tram rail_urban rail rail_electric rail_fast ship" speed="8.35" length="9.86" shape="387.25,1903.39 386.24,1904.87 385.71,1908.40 386.41,1912.84"/>
    </edge>
    <edge id=":1109773252_2" function="internal">
        <lane id=":1109773252_2_0" index="0" disallow="tram rail_urban rail rail_electric rail_fast ship" speed="6.60" length="8.83" shape="389.20,1910.88 388.79,1908.26 389.14,1906.16 390.24,1904.59 392.10,1903.55"/>
    </edge>
    <edge id=":1109773252_3" function="internal">
        <lane id=":1109773252_3_0" index="0" disallow="tram rail_urban rail rail_electric rail_fast ship" speed="8.27" length="15.16" shape="389.20,1910.88 387.58,1907.28 385.06,1905.06 381.65,1904.24 377.34,1904.81"/>
    </edge>
    <edge id=":1109773252_4" function="internal">
        <lane id=":1109773252_4_0" index="0" disallow="tram rail_urban rail rail_electric rail_fast ship" speed="7.11" length="10.95" shape="378.16,1907.90 381.09,1907.57 383.45,1908.28 385.22,1910.03 386.41,1912.84"/>
    </edge>
    <edge id=":1109773252_5" function="internal">
        <lane id=":1109773252_5_0" index="0" disallow="tram rail_urban rail rail_electric rail_fast ship" speed="13.89" length="14.60" shape="378.16,1907.90 392.10,1903.55"/>
    </edge>
    <edge id=":1109773255_0" function="internal">
        <lane id=":1109773255_0_0" index="0" disallow="tram rail_urban rail rail_electric rail_fast ship" speed="6.80" length="8.84" shape="611.67,1735.23 609.61,1736.18 607.61,1736.28 605.67,1735.51 603.80,1733.89"/>
    </edge>
    <edge id=":1109773255_1" function="internal">
        <lane id=":1109773255_1_0" index="0" disallow="tram rail_urban rail rail_electric rail_fast ship" speed="13.89" length="13.96" shape="611.67,1735.23 608.70,1737.24 605.95,1739.22 603.26,1741.29 600.47,1743.55"/>
    </edge>
    <edge id=":1109773255_2" function="internal">
        <lane id=":1109773255_2_0" index="0" disallow="tram rail_urban rail rail_electric rail_fast ship" speed="13.89" length="13.61" shape="602.52,1746.01 605.26,1743.78 607.85,1741.79 610.51,1739.88 613.43,1737.90"/>
    </edge>
    <edge id=":1109773255_3" function="internal">
        <lane id=":1109773255_3_0" index="0" disallow="tram rail_urban rail rail_electric rail_fast ship" speed="7.85" length="5.87" shape="602.52,1746.01 605.21,1743.09 605.87,1741.30"/>
    </edge>
    <edge id=":1109773255_6" function="internal">
        <lane id=":1109773255_6_0" index="0" disallow="tram rail_urban rail rail_electric rail_fast ship" speed="7.85" length="8.14" shape="605.87,1741.30 606.32,1740.09 605.85,1737.02 603.80,1733.89"/>
    </edge>
    <edge id=":1109773255_4" function="internal">
        <lane id=":1109773255_4_0" index="0" disallow="tram rail_urban rail rail_electric rail_fast ship" speed="6.38" length="8.90" shape="601.26,1735.85 602.57,1737.85 602.87,1739.80 602.17,1741.70 600.47,1743.55"/>
    </edge>
    <edge id=":1109773255_5" function="internal">
        <lane id=":1109773255_5_0" index="0" disallow="tram rail_urban rail rail_electric rail_fast ship" speed="8.31" length="13.66" shape="601.26,1735.85 604.15,1738.36 607.14,1739.53 610.24,1739.38 613.43,1737.90"/>
    </edge>
    <edge id=":1109773265_0" function="internal">
        <lane id=":1109773265_0_0" index="0" disallow="tram rail_urban rail rail_electric rail_fast ship" speed="6.82" length="9.44" shape="380.94,1639.86 378.75,1641.38 376.62,1641.93 374.54,1641.50 372.53,1640.10"/>
    </edge>
    <edge id=":1109773265_1" function="internal">
        <lane id=":1109773265_1_0" index="0" disallow="tram rail_urban rail rail_electric rail_fast ship" speed="7.87" length="14.50" shape="380.94,1639.86 378.38,1642.95 377.50,1646.06 378.30,1649.19 380.79,1652.34"/>
    </edge>
    <edge id=":1109773265_2" function="internal">
        <lane id=":1109773265_2_0" index="0" disallow="tram rail_urban rail rail_electric rail_fast ship" speed="6.34" length="9.04" shape="382.99,1650.02 381.44,1648.05 380.94,1646.10 381.49,1644.16 383.09,1642.24"/>
    </edge>
    <edge id=":1109773265_3" function="internal">
        <lane id=":1109773265_3_0" index="0" disallow="tram rail_urban rail rail_electric rail_fast ship" speed="8.33" length="14.42" shape="382.99,1650.02 372.53,1640.10"/>
    </edge>
    <edge id=":1109773265_4" function="internal">
        <lane id=":1109773265_4_0" index="0" disallow="tram rail_urban rail rail_electric rail_fast ship" speed="8.33" length="14.42" shape="370.33,1642.43 380.79,1652.34"/>
    </edge>
    <edge id=":1109773265_5" function="internal">
        <lane id=":1109773265_5_0" index="0" disallow="tram rail_urban rail rail_electric rail_fast ship" speed="8.27" length="14.31" shape="370.33,1642.43 373.42,1644.59 376.58,1645.28 379.80,1644.50 383.09,1642.24"/>
    </edge>
    <edge id=":1109773267_0" function="internal">
        <lane id=":1109773267_0_0" index="0" disallow="tram rail_urban rail rail_electric rail_fast ship" speed="8.33" length="14.25" shape="420.23,1750.51 409.16,1759.49"/>
    </edge>
    <edge id=":1109773267_1" function="internal">
        <lane id=":1109773267_1_0" index="0" disallow="tram rail_urban rail rail_electric rail_fast ship" speed="8.33" length="14.54" shape="420.23,1750.51 417.69,1753.44 416.61,1756.57 417.01,1759.90 418.88,1763.43"/>
    </edge>
    <edge id=":1109773267_2" function="internal">
        <lane id=":1109773267_2_0" index="0" disallow="tram rail_urban rail rail_electric rail_fast ship" speed="7.06" length="10.08" shape="421.74,1761.93 420.37,1759.40 420.00,1757.06 420.66,1754.90 422.32,1752.93"/>
    </edge>
    <edge id=":1109773267_3" function="internal">
        <lane id=":1109773267_3_0" index="0" disallow="tram rail_urban rail rail_electric rail_fast ship" speed="8.04" length="14.71" shape="421.74,1761.93 418.85,1758.85 415.80,1757.41 412.57,1757.63 409.16,1759.49"/>
    </edge>
    <edge id=":1109773267_4" function="internal">
        <lane id=":1109773267_4_0" index="0" disallow="tram rail_urban rail rail_electric rail_fast ship" speed="6.45" length="9.07" shape="411.12,1762.02 413.23,1760.86 415.23,1760.70 417.12,1761.56 418.88,1763.43"/>
    </edge>
    <edge id=":1109773267_5" function="internal">
        <lane id=":1109773267_5_0" index="0" disallow="tram rail_urban rail rail_electric rail_fast ship" speed="8.33" length="14.43" shape="411.12,1762.02 422.32,1752.93"/>
    </edge>
    <edge id=":1109773319_0" function="internal">
        <lane id=":1109773319_0_0" index="0" disallow="tram rail_urban rail rail_electric rail_fast ship" speed="8.33" length="15.65" shape="581.36,1709.29 578.66,1706.54 575.81,1703.76 572.86,1701.10 569.87,1698.68"/>
    </edge>
    <edge id=":1109773319_1" function="internal">
        <lane id=":1109773319_1_0" index="0" disallow="tram rail_urban rail rail_electric rail_fast ship" speed="8.33" length="14.84" shape="581.36,1709.29 578.21,1706.86 574.96,1705.95 571.59,1706.56 568.12,1708.69"/>
    </edge>
    <edge id=":1109773319_2" function="internal">
        <lane id=":1109773319_2_0" index="0" disallow="tram rail_urban rail rail_electric rail_fast ship" speed="6.93" length="9.71" shape="570.17,1711.15 572.49,1709.70 574.71,1709.24 576.83,1709.77 578.84,1711.29"/>
    </edge>
    <edge id=":1109773319_3" function="internal">
        <lane id=":1109773319_3_0" index="0" disallow="tram rail_urban rail rail_electric rail_fast ship" speed="7.63" length="15.18" shape="570.17,1711.15 573.08,1707.97 574.00,1704.83 572.93,1701.73 569.87,1698.68"/>
    </edge>
    <edge id=":1109773319_4" function="internal">
        <lane id=":1109773319_4_0" index="0" disallow="tram rail_urban rail rail_electric rail_fast ship" speed="6.05" length="9.06" shape="567.95,1701.24 569.78,1703.06 570.41,1704.91 569.86,1706.79 568.12,1708.69"/>
    </edge>
    <edge id=":1109773319_5" function="internal">
        <lane id=":1109773319_5_0" index="0" disallow="tram rail_urban rail rail_electric rail_fast ship" speed="8.33" length="14.83" shape="567.95,1701.24 570.85,1703.57 573.59,1706.04 576.23,1708.63 578.84,1711.29"/>
    </edge>
    <edge id=":1109773452_0" function="internal">
        <lane id=":1109773452_0_0" index="0" disallow="tram rail_urban rail rail_electric rail_fast ship" speed="8.33" length="14.42" shape="445.56,1661.87 435.50,1651.54"/>
    </edge>
    <edge id=":1109773452_1" function="internal">