<?xml version="1.0" encoding="UTF-8"?>

<!-- generated on 03/07/21 17:51:57 by Eclipse SUMO netedit Version 1.7.0
<configuration xmlns:xsi="http://www.w3.org/2001/XMLSchema-instance" xsi:noNamespaceSchemaLocation="http://sumo.dlr.de/xsd/netconvertConfiguration.xsd">

    <input>
        <sumo-net-file value="C:\Users\Caolan\Desktop\Final%20Year%20Project\Simulations\Sim1\MonCross\bigtest.net.xml"/>
    </input>

    <output>
        <output-file value="C:\Users\Caolan\Desktop\Final%20Year%20Project\Simulations\Sim1\MonCross\bigtest.net.xml"/>
    </output>

    <processing>
        <geometry.min-radius.fix.railways value="false"/>
        <geometry.max-grade.fix value="false"/>
        <offset.disable-normalization value="true"/>
        <lefthand value="true"/>
    </processing>

    <junctions>
        <no-turnarounds value="true"/>
        <junctions.corner-detail value="5"/>
        <junctions.limit-turn-speed value="5.5"/>
        <rectangular-lane-cut value="false"/>
    </junctions>

    <pedestrian>
        <walkingareas value="false"/>
    </pedestrian>

    <report>
        <aggregate-warnings value="5"/>
    </report>

</configuration>
-->

<net version="1.6" junctionCornerDetail="5" lefthand="true" limitTurnSpeed="5.50" xmlns:xsi="http://www.w3.org/2001/XMLSchema-instance" xsi:noNamespaceSchemaLocation="http://sumo.dlr.de/xsd/net_file.xsd">

    <location netOffset="-496365.25,-5902677.99" convBoundary="80.74,0.00,2223.83,1494.97" origBoundary="-9.054518,53.273332,-9.018482,53.287098" projParameter="+proj=utm +zone=29 +ellps=WGS84 +datum=WGS84 +units=m +no_defs"/>

    <type id="highway.bridleway" priority="1" numLanes="1" speed="2.78" allow="pedestrian" oneway="1" width="2.00"/>
    <type id="highway.bus_guideway" priority="1" numLanes="1" speed="27.78" allow="bus" oneway="1"/>
    <type id="highway.cycleway" priority="1" numLanes="1" speed="8.33" allow="bicycle" oneway="0" width="1.00"/>
    <type id="highway.footway" priority="1" numLanes="1" speed="2.78" allow="pedestrian" oneway="1" width="2.00"/>
    <type id="highway.ford" priority="1" numLanes="1" speed="2.78" allow="army" oneway="0"/>
    <type id="highway.living_street" priority="2" numLanes="1" speed="2.78" disallow="tram rail_urban rail rail_electric rail_fast ship" oneway="0"/>
    <type id="highway.motorway" priority="14" numLanes="2" speed="39.44" allow="private emergency authority army vip passenger hov taxi bus coach delivery truck trailer motorcycle evehicle custom1 custom2" oneway="1"/>
    <type id="highway.motorway_link" priority="9" numLanes="1" speed="22.22" allow="private emergency authority army vip passenger hov taxi bus coach delivery truck trailer motorcycle evehicle custom1 custom2" oneway="1"/>
    <type id="highway.path" priority="1" numLanes="1" speed="2.78" allow="pedestrian bicycle" oneway="1" width="2.00"/>
    <type id="highway.pedestrian" priority="1" numLanes="1" speed="2.78" allow="pedestrian" oneway="1" width="2.00"/>
    <type id="highway.primary" priority="12" numLanes="2" speed="27.78" disallow="tram rail_urban rail rail_electric rail_fast ship" oneway="0"/>
    <type id="highway.primary_link" priority="7" numLanes="1" speed="22.22" disallow="tram rail_urban rail rail_electric rail_fast ship" oneway="0"/>
    <type id="highway.raceway" priority="15" numLanes="2" speed="83.33" allow="vip" oneway="0"/>
    <type id="highway.residential" priority="3" numLanes="1" speed="13.89" disallow="tram rail_urban rail rail_electric rail_fast ship" oneway="0"/>
    <type id="highway.secondary" priority="11" numLanes="1" speed="27.78" disallow="tram rail_urban rail rail_electric rail_fast ship" oneway="0"/>
    <type id="highway.secondary_link" priority="6" numLanes="1" speed="22.22" disallow="tram rail_urban rail rail_electric rail_fast ship" oneway="0"/>
    <type id="highway.service" priority="1" numLanes="1" speed="5.56" allow="pedestrian delivery bicycle" oneway="0"/>
    <type id="highway.stairs" priority="1" numLanes="1" speed="1.39" allow="pedestrian" oneway="1" width="2.00"/>
    <type id="highway.step" priority="1" numLanes="1" speed="1.39" allow="pedestrian" oneway="1" width="2.00"/>
    <type id="highway.steps" priority="1" numLanes="1" speed="1.39" allow="pedestrian" oneway="1" width="2.00"/>
    <type id="highway.tertiary" priority="10" numLanes="1" speed="22.22" disallow="tram rail_urban rail rail_electric rail_fast ship" oneway="0"/>
    <type id="highway.tertiary_link" priority="5" numLanes="1" speed="22.22" disallow="tram rail_urban rail rail_electric rail_fast ship" oneway="0"/>
    <type id="highway.track" priority="1" numLanes="1" speed="5.56" allow="pedestrian motorcycle moped bicycle" oneway="0"/>
    <type id="highway.trunk" priority="13" numLanes="2" speed="27.78" disallow="pedestrian bicycle tram rail_urban rail rail_electric rail_fast ship" oneway="0"/>
    <type id="highway.trunk_link" priority="8" numLanes="1" speed="22.22" disallow="pedestrian bicycle tram rail_urban rail rail_electric rail_fast ship" oneway="0"/>
    <type id="highway.unclassified" priority="4" numLanes="1" speed="13.89" disallow="tram rail_urban rail rail_electric rail_fast ship" oneway="0"/>
    <type id="highway.unsurfaced" priority="1" numLanes="1" speed="8.33" disallow="tram rail_urban rail rail_electric rail_fast ship" oneway="0"/>
    <type id="railway.highspeed" priority="21" numLanes="1" speed="69.44" allow="rail_fast" oneway="1"/>
    <type id="railway.light_rail" priority="19" numLanes="1" speed="27.78" allow="rail_urban" oneway="1"/>
    <type id="railway.preserved" priority="16" numLanes="1" speed="27.78" allow="rail" oneway="1"/>
    <type id="railway.rail" priority="20" numLanes="1" speed="44.44" allow="rail" oneway="1"/>
    <type id="railway.subway" priority="18" numLanes="1" speed="27.78" allow="rail_urban" oneway="1"/>
    <type id="railway.tram" priority="17" numLanes="1" speed="13.89" allow="tram" oneway="1"/>

    <edge id=":1110397084_0" function="internal">
        <lane id=":1110397084_0_0" index="0" disallow="tram rail_urban rail rail_electric rail_fast ship" speed="9.37" length="9.82" shape="1093.20,1016.36 1094.41,1014.49 1096.12,1012.97 1098.32,1011.80 1101.01,1010.97"/>
    </edge>
    <edge id=":1110397084_1" function="internal">
        <lane id=":1110397084_1_0" index="0" disallow="tram rail_urban rail rail_electric rail_fast ship" speed="6.71" length="7.99" shape="1089.38,1007.70 1090.63,1009.10 1091.21,1010.78 1091.10,1012.74 1090.31,1014.99"/>
    </edge>
    <edge id=":1110397084_2" function="internal">
        <lane id=":1110397084_2_0" index="0" disallow="tram rail_urban rail rail_electric rail_fast ship" speed="10.69" length="11.99" shape="1089.38,1007.70 1092.28,1009.62 1095.18,1010.81 1098.09,1011.26 1101.01,1010.97"/>
        <lane id=":1110397084_2_1" index="1" disallow="tram rail_urban rail rail_electric rail_fast ship" speed="10.27" length="11.99" shape="1090.91,1004.83 1093.47,1006.50 1096.13,1007.50 1098.86,1007.85 1101.68,1007.55"/>
    </edge>
    <edge id=":1110397186_0" function="internal">
        <lane id=":1110397186_0_0" index="0" disallow="tram rail_urban rail rail_electric rail_fast ship" speed="13.89" length="0.22" shape="502.18,643.39 502.05,643.21"/>
    </edge>
    <edge id=":1110397186_1" function="internal">
        <lane id=":1110397186_1_0" index="0" disallow="tram rail_urban rail rail_electric rail_fast ship" speed="13.89" length="0.31" shape="499.49,645.14 499.68,645.38"/>
    </edge>
    <edge id=":1110397213_0" function="internal">
        <lane id=":1110397213_0_0" index="0" disallow="tram rail_urban rail rail_electric rail_fast ship" speed="6.61" length="9.06" shape="690.92,893.92 688.68,895.01 686.62,895.15 684.73,894.35 683.02,892.60"/>
    </edge>
    <edge id=":1110397213_1" function="internal">
        <lane id=":1110397213_1_0" index="0" disallow="tram rail_urban rail rail_electric rail_fast ship" speed="8.00" length="14.11" shape="690.92,893.92 688.05,896.51 686.69,899.39 686.83,902.58 688.48,906.08"/>
    </edge>
    <edge id=":1110397213_2" function="internal">
        <lane id=":1110397213_2_0" index="0" disallow="tram rail_urban rail rail_electric rail_fast ship" speed="6.51" length="8.98" shape="691.15,904.31 690.10,902.09 690.01,900.06 690.88,898.22 692.71,896.58"/>
    </edge>
    <edge id=":1110397213_3" function="internal">
        <lane id=":1110397213_3_0" index="0" disallow="tram rail_urban rail rail_electric rail_fast ship" speed="13.89" length="14.26" shape="691.15,904.31 683.02,892.60"/>
    </edge>
    <edge id=":1110397213_4" function="internal">
        <lane id=":1110397213_4_0" index="0" disallow="tram rail_urban rail rail_electric rail_fast ship" speed="13.89" length="14.10" shape="680.43,894.49 688.48,906.08"/>
    </edge>
    <edge id=":1110397213_5" function="internal">
        <lane id=":1110397213_5_0" index="0" disallow="tram rail_urban rail rail_electric rail_fast ship" speed="8.09" length="5.63" shape="680.43,894.49 683.10,897.22 684.77,897.93"/>
    </edge>
    <edge id=":1110397213_6" function="internal">
        <lane id=":1110397213_6_0" index="0" disallow="tram rail_urban rail rail_electric rail_fast ship" speed="8.09" length="8.44" shape="684.77,897.93 686.03,898.47 689.23,898.26 692.71,896.58"/>
    </edge>
    <edge id=":1110397308_0" function="internal">
        <lane id=":1110397308_0_0" index="0" disallow="tram rail_urban rail rail_electric rail_fast ship" speed="13.89" length="0.31" shape="713.40,807.75 713.14,807.92"/>
    </edge>
    <edge id=":1110397308_1" function="internal">
        <lane id=":1110397308_1_0" index="0" disallow="tram rail_urban rail rail_electric rail_fast ship" speed="13.89" length="0.28" shape="714.94,810.57 715.17,810.41"/>
    </edge>
    <edge id=":1110397474_0" function="internal">
        <lane id=":1110397474_0_0" index="0" disallow="tram rail_urban rail rail_electric rail_fast ship" speed="13.89" length="0.10" shape="529.37,677.54 529.37,677.54"/>
    </edge>
    <edge id=":1110397474_1" function="internal">
        <lane id=":1110397474_1_0" index="0" disallow="tram rail_urban rail rail_electric rail_fast ship" speed="13.89" length="0.10" shape="526.87,679.54 526.87,679.54"/>
    </edge>
    <edge id=":1110397541_0" function="internal">
        <lane id=":1110397541_0_0" index="0" disallow="tram rail_urban rail rail_electric rail_fast ship" speed="6.67" length="9.35" shape="570.03,719.73 567.86,720.90 565.78,721.07 563.79,720.24 561.89,718.41"/>
    </edge>
    <edge id=":1110397541_1" function="internal">
        <lane id=":1110397541_1_0" index="0" disallow="tram rail_urban rail rail_electric rail_fast ship" speed="13.89" length="14.51" shape="570.03,719.73 558.16,728.06"/>
    </edge>
    <edge id=":1110397541_2" function="internal">
        <lane id=":1110397541_2_0" index="0" disallow="tram rail_urban rail rail_electric rail_fast ship" speed="13.89" length="14.71" shape="559.91,730.74 571.96,722.28"/>
    </edge>
    <edge id=":1110397541_3" function="internal">
        <lane id=":1110397541_3_0" index="0" disallow="tram rail_urban rail rail_electric rail_fast ship" speed="7.85" length="6.30" shape="559.91,730.74 562.94,728.06 563.87,726.00"/>
    </edge>
    <edge id=":1110397541_6" function="internal">
        <lane id=":1110397541_6_0" index="0" disallow="tram rail_urban rail rail_electric rail_fast ship" speed="7.85" length="8.25" shape="563.87,726.00 564.28,725.11 563.93,721.90 561.89,718.41"/>
    </edge>
    <edge id=":1110397541_4" function="internal">
        <lane id=":1110397541_4_0" index="0" disallow="tram rail_urban rail rail_electric rail_fast ship" speed="6.32" length="9.04" shape="559.38,720.40 560.65,722.57 560.87,724.57 560.04,726.40 558.16,728.06"/>
    </edge>
    <edge id=":1110397541_5" function="internal">
        <lane id=":1110397541_5_0" index="0" disallow="tram rail_urban rail rail_electric rail_fast ship" speed="8.14" length="14.41" shape="559.38,720.40 562.29,723.18 565.35,724.42 568.57,724.12 571.96,722.28"/>
    </edge>
    <edge id=":1111150142_0" function="internal">
        <lane id=":1111150142_0_0" index="0" disallow="tram rail_urban rail rail_electric rail_fast ship" speed="11.11" length="0.29" shape="461.13,1162.19 461.05,1162.23 461.00,1162.25 460.94,1162.27 460.86,1162.31"/>
    </edge>
    <edge id=":1111150142_1" function="internal">
        <lane id=":1111150142_1_0" index="0" disallow="tram rail_urban rail rail_electric rail_fast ship" speed="11.11" length="0.18" shape="462.53,1165.04 462.67,1164.94"/>
    </edge>
    <edge id=":1111150146_0" function="internal">
        <lane id=":1111150146_0_0" index="0" disallow="tram rail_urban rail rail_electric rail_fast ship" speed="6.59" length="9.14" shape="462.53,1316.17 460.23,1317.06 458.17,1317.00 456.36,1315.99 454.78,1314.02"/>
    </edge>
    <edge id=":1111150146_1" function="internal">
        <lane id=":1111150146_1_0" index="0" disallow="tram rail_urban rail rail_electric rail_fast ship" speed="13.89" length="14.40" shape="462.53,1316.17 450.01,1323.28"/>
    </edge>
    <edge id=":1111150146_2" function="internal">
        <lane id=":1111150146_2_0" index="0" disallow="tram rail_urban rail rail_electric rail_fast ship" speed="13.89" length="14.40" shape="451.59,1326.06 464.11,1318.95"/>
    </edge>
    <edge id=":1111150146_3" function="internal">
        <lane id=":1111150146_3_0" index="0" disallow="tram rail_urban rail rail_electric rail_fast ship" speed="7.97" length="5.93" shape="451.59,1326.06 454.69,1323.66 455.67,1321.90"/>
    </edge>
    <edge id=":1111150146_6" function="internal">
        <lane id=":1111150146_6_0" index="0" disallow="tram rail_urban rail rail_electric rail_fast ship" speed="7.97" length="8.34" shape="455.67,1321.90 456.26,1320.85 456.29,1317.64 454.78,1314.02"/>
    </edge>
    <edge id=":1111150146_4" function="internal">
        <lane id=":1111150146_4_0" index="0" disallow="tram rail_urban rail rail_electric rail_fast ship" speed="6.46" length="9.03" shape="452.03,1315.66 452.98,1317.95 452.97,1319.98 451.97,1321.76 450.01,1323.28"/>
    </edge>
    <edge id=":1111150146_5" function="internal">
        <lane id=":1111150146_5_0" index="0" disallow="tram rail_urban rail rail_electric rail_fast ship" speed="8.07" length="14.22" shape="452.03,1315.66 454.48,1318.71 457.31,1320.27 460.52,1320.35 464.11,1318.95"/>
    </edge>
    <edge id=":1111150172_0" function="internal">
        <lane id=":1111150172_0_0" index="0" disallow="tram rail_urban rail rail_electric rail_fast ship" speed="13.89" length="0.30" shape="436.85,1283.90 436.70,1283.64"/>
    </edge>
    <edge id=":1111150172_1" function="internal">
        <lane id=":1111150172_1_0" index="0" disallow="tram rail_urban rail rail_electric rail_fast ship" speed="13.89" length="0.30" shape="433.95,1285.28 434.10,1285.54"/>
    </edge>
    <edge id=":1111150181_0" function="internal">
        <lane id=":1111150181_0_0" index="0" disallow="tram rail_urban rail rail_electric rail_fast ship" speed="13.89" length="0.10" shape="422.87,1258.97 422.87,1258.97"/>
    </edge>
    <edge id=":1111150181_1" function="internal">
        <lane id=":1111150181_1_0" index="0" disallow="tram rail_urban rail rail_electric rail_fast ship" speed="13.89" length="0.10" shape="420.07,1260.51 420.07,1260.51"/>
    </edge>
    <edge id=":1111150209_0" function="internal">
        <lane id=":1111150209_0_0" index="0" disallow="tram rail_urban rail rail_electric rail_fast ship" speed="13.89" length="14.23" shape="385.05,1190.56 370.83,1191.14"/>
    </edge>
    <edge id=":1111150209_1" function="internal">
        <lane id=":1111150209_1_0" index="0" disallow="tram rail_urban rail rail_electric rail_fast ship" speed="7.86" length="5.75" shape="385.05,1190.56 381.11,1191.37 379.71,1192.38"/>
    </edge>
    <edge id=":1111150209_6" function="internal">
        <lane id=":1111150209_6_0" index="0" disallow="tram rail_urban rail rail_electric rail_fast ship" speed="7.86" length="8.77" shape="379.71,1192.38 378.49,1193.26 377.18,1196.21 377.18,1200.24"/>
    </edge>
    <edge id=":1111150209_2" function="internal">
        <lane id=":1111150209_2_0" index="0" disallow="tram rail_urban rail rail_electric rail_fast ship" speed="6.33" length="9.04" shape="380.35,1199.78 380.34,1197.27 381.16,1195.43 382.80,1194.26 385.25,1193.75"/>
    </edge>
    <edge id=":1111150209_3" function="internal">
        <lane id=":1111150209_3_0" index="0" disallow="tram rail_urban rail rail_electric rail_fast ship" speed="8.41" length="14.28" shape="380.35,1199.78 379.27,1195.94 377.33,1193.22 374.52,1191.62 370.83,1191.14"/>
    </edge>
    <edge id=":1111150209_4" function="internal">
        <lane id=":1111150209_4_0" index="0" disallow="tram rail_urban rail rail_electric rail_fast ship" speed="6.99" length="9.57" shape="370.90,1194.34 373.32,1194.67 375.17,1195.76 376.46,1197.62 377.18,1200.24"/>
    </edge>
    <edge id=":1111150209_5" function="internal">
        <lane id=":1111150209_5_0" index="0" disallow="tram rail_urban rail rail_electric rail_fast ship" speed="13.89" length="14.36" shape="370.90,1194.34 385.25,1193.75"/>
    </edge>
    <edge id=":1167171523_0" function="internal">
        <lane id=":1167171523_0_0" index="0" disallow="tram rail_urban rail rail_electric rail_fast ship" speed="6.29" length="9.04" shape="792.28,1243.46 789.94,1244.39 787.94,1244.31 786.27,1243.20 784.93,1241.06"/>
    </edge>
    <edge id=":1167171523_1" function="internal">
        <lane id=":1167171523_1_0" index="0" disallow="tram rail_urban rail rail_electric rail_fast ship" speed="8.40" length="14.34" shape="792.28,1243.46 789.21,1245.85 787.51,1248.68 787.17,1251.96 788.20,1255.68"/>
    </edge>
    <edge id=":1167171523_2" function="internal">
        <lane id=":1167171523_2_0" index="0" disallow="tram rail_urban rail rail_electric rail_fast ship" speed="6.92" length="9.43" shape="791.05,1254.22 790.41,1251.81 790.66,1249.68 791.82,1247.82 793.88,1246.23"/>
    </edge>
    <edge id=":1167171523_3" function="internal">
        <lane id=":1167171523_3_0" index="0" disallow="tram rail_urban rail rail_electric rail_fast ship" speed="13.89" length="14.51" shape="791.05,1254.22 784.93,1241.06"/>
    </edge>
    <edge id=":1167171523_4" function="internal">
        <lane id=":1167171523_4_0" index="0" disallow="tram rail_urban rail rail_electric rail_fast ship" speed="13.89" length="14.69" shape="782.01,1242.36 788.20,1255.68"/>
    </edge>
    <edge id=":1167171523_5" function="internal">
        <lane id=":1167171523_5_0" index="0" disallow="tram rail_urban rail rail_electric rail_fast ship" speed="7.82" length="6.17" shape="782.01,1242.36 784.17,1245.81 785.92,1246.97"/>
    </edge>
    <edge id=":1167171523_6" function="internal">
        <lane id=":1167171523_6_0" index="0" disallow="tram rail_urban rail rail_electric rail_fast ship" speed="7.82" length="8.45" shape="785.92,1246.97 786.87,1247.60 790.10,1247.74 793.88,1246.23"/>
    </edge>
    <edge id=":1167171538_0" function="internal">
        <lane id=":1167171538_0_0" index="0" disallow="tram rail_urban rail rail_electric rail_fast ship" speed="6.20" length="9.05" shape="799.96,1260.19 797.64,1261.23 795.65,1261.20 793.99,1260.10 792.66,1257.94"/>
    </edge>
    <edge id=":1167171538_1" function="internal">
        <lane id=":1167171538_1_0" index="0" disallow="tram rail_urban rail rail_electric rail_fast ship" speed="13.89" length="14.32" shape="799.96,1260.19 796.90,1262.17 794.01,1264.17 791.20,1266.28 788.37,1268.58"/>
    </edge>
    <edge id=":1167171538_2" function="internal">
        <lane id=":1167171538_2_0" index="0" disallow="tram rail_urban rail rail_electric rail_fast ship" speed="13.89" length="13.87" shape="790.44,1271.02 793.21,1268.76 795.90,1266.75 798.67,1264.84 801.67,1262.89"/>
    </edge>
    <edge id=":1167171538_3" function="internal">
        <lane id=":1167171538_3_0" index="0" disallow="tram rail_urban rail rail_electric rail_fast ship" speed="9.06" length="5.36" shape="790.44,1271.02 792.74,1268.37 793.38,1266.64"/>
    </edge>
    <edge id=":1167171538_6" function="internal">
        <lane id=":1167171538_6_0" index="0" disallow="tram rail_urban rail rail_electric rail_fast ship" speed="9.06" length="8.97" shape="793.38,1266.64 793.88,1265.31 793.85,1261.83 792.66,1257.94"/>
    </edge>
    <edge id=":1167171538_4" function="internal">
        <lane id=":1167171538_4_0" index="0" disallow="tram rail_urban rail rail_electric rail_fast ship" speed="7.73" length="10.21" shape="789.73,1259.21 790.62,1262.05 790.69,1264.56 789.94,1266.73 788.37,1268.58"/>
    </edge>
    <edge id=":1167171538_5" function="internal">
        <lane id=":1167171538_5_0" index="0" disallow="tram rail_urban rail rail_electric rail_fast ship" speed="7.75" length="14.82" shape="789.73,1259.21 791.91,1262.75 794.62,1264.54 797.88,1264.59 801.67,1262.89"/>
    </edge>
    <edge id=":1167171580_0" function="internal">
        <lane id=":1167171580_0_0" index="0" disallow="tram rail_urban rail rail_electric rail_fast ship" speed="13.89" length="14.25" shape="701.42,1115.72 687.74,1119.72"/>
    </edge>
    <edge id=":1167171580_1" function="internal">
        <lane id=":1167171580_1_0" index="0" disallow="tram rail_urban rail rail_electric rail_fast ship" speed="7.66" length="6.39" shape="701.42,1115.72 697.35,1117.56 696.03,1118.96"/>
    </edge>
    <edge id=":1167171580_6" function="internal">
        <lane id=":1167171580_6_0" index="0" disallow="tram rail_urban rail rail_electric rail_fast ship" speed="7.66" length="8.37" shape="696.03,1118.96 695.05,1120.00 694.50,1123.05 695.72,1126.69"/>
    </edge>
    <edge id=":1167171580_2" function="internal">
        <lane id=":1167171580_2_0" index="0" disallow="tram rail_urban rail rail_electric rail_fast ship" speed="6.28" length="9.52" shape="698.95,1125.96 698.12,1123.54 698.41,1121.54 699.83,1119.95 702.37,1118.77"/>
    </edge>
    <edge id=":1167171580_3" function="internal">
        <lane id=":1167171580_3_0" index="0" disallow="tram rail_urban rail rail_electric rail_fast ship" speed="8.66" length="13.99" shape="698.95,1125.96 696.63,1122.52 693.99,1120.33 691.03,1119.40 687.74,1119.72"/>
    </edge>
    <edge id=":1167171580_4" function="internal">
        <lane id=":1167171580_4_0" index="0" disallow="tram rail_urban rail rail_electric rail_fast ship" speed="7.01" length="8.85" shape="688.59,1122.81 690.69,1122.60 692.58,1123.17 694.26,1124.54 695.72,1126.69"/>
    </edge>
    <edge id=":1167171580_5" function="internal">
        <lane id=":1167171580_5_0" index="0" disallow="tram rail_urban rail rail_electric rail_fast ship" speed="13.89" length="14.36" shape="688.59,1122.81 702.37,1118.77"/>
    </edge>
    <edge id=":1167173810_0" function="internal">
        <lane id=":1167173810_0_0" index="0" disallow="tram rail_urban rail rail_electric rail_fast ship" speed="13.89" length="0.31" shape="1259.27,1151.47 1259.08,1151.22"/>
    </edge>
    <edge id=":1167173810_1" function="internal">
        <lane id=":1167173810_1_0" index="0" disallow="tram rail_urban rail rail_electric rail_fast ship" speed="13.89" length="0.27" shape="1256.58,1153.21 1256.74,1153.42"/>
    </edge>
    <edge id=":1197611095_0" function="internal">
        <lane id=":1197611095_0_0" index="0" disallow="tram rail_urban rail rail_electric rail_fast ship" speed="5.17" length="4.58" shape="1618.33,898.65 1617.61,894.12"/>
    </edge>
    <edge id=":1197611095_1" function="internal">
        <lane id=":1197611095_1_0" index="0" disallow="tram rail_urban rail rail_electric rail_fast ship" speed="6.59" length="5.04" shape="1618.33,898.65 1617.77,899.43 1617.42,900.83 1617.20,902.33 1617.06,903.44"/>
    </edge>
    <edge id=":1197611095_2" function="internal">
        <lane id=":1197611095_2_0" index="0" disallow="tram rail_urban rail rail_electric rail_fast ship" speed="8.33" length="8.12" shape="1614.98,895.94 1616.33,897.93 1617.10,899.45 1617.32,901.10 1617.06,903.44"/>
    </edge>
    <edge id=":1197611097_0" function="internal">
        <lane id=":1197611097_0_0" index="0" disallow="tram rail_urban rail rail_electric rail_fast ship" speed="8.33" length="10.78" shape="1628.73,894.69 1625.98,896.05 1623.79,896.76 1621.56,897.38 1618.68,898.49"/>
    </edge>
    <edge id=":1197611097_1" function="internal">
        <lane id=":1197611097_1_0" index="0" disallow="tram rail_urban rail rail_electric rail_fast ship" speed="7.02" length="7.92" shape="1626.64,903.85 1626.60,902.02 1627.20,900.34 1628.45,898.82 1630.34,897.45"/>
    </edge>
    <edge id=":1197611097_2" function="internal">
        <lane id=":1197611097_2_0" index="0" disallow="tram rail_urban rail rail_electric rail_fast ship" speed="6.76" length="11.61" shape="1626.64,903.85 1625.55,900.42 1623.86,898.38 1621.57,897.74 1618.68,898.49"/>
    </edge>
    <edge id=":1197611115_0" function="internal">
        <lane id=":1197611115_0_0" index="0" disallow="tram rail_urban rail rail_electric rail_fast ship" speed="8.33" length="0.57" shape="1617.02,903.63 1616.89,903.08"/>
    </edge>
    <edge id=":1307132056_0" function="internal">
        <lane id=":1307132056_0_0" index="0" disallow="tram rail_urban rail rail_electric rail_fast ship" speed="8.33" length="14.33" shape="1994.25,946.43 1981.65,939.61"/>
    </edge>
    <edge id=":1307132056_1" function="internal">
        <lane id=":1307132056_1_0" index="0" disallow="tram rail_urban rail rail_electric rail_fast ship" speed="7.98" length="14.23" shape="1994.25,946.43 1990.57,945.11 1987.37,945.28 1984.63,946.95 1982.36,950.13"/>
    </edge>
    <edge id=":1307132056_2" function="internal">
        <lane id=":1307132056_2_0" index="0" disallow="tram rail_urban rail rail_electric rail_fast ship" speed="6.49" length="9.03" shape="1985.19,951.60 1986.64,949.59 1988.38,948.53 1990.41,948.42 1992.74,949.26"/>
    </edge>
    <edge id=":1307132056_3" function="internal">
        <lane id=":1307132056_3_0" index="0" disallow="tram rail_urban rail rail_electric rail_fast ship" speed="8.07" length="14.19" shape="1985.19,951.60 1986.49,947.93 1986.34,944.70 1984.72,941.93 1981.65,939.61"/>
    </edge>
    <edge id=":1307132056_4" function="internal">
        <lane id=":1307132056_4_0" index="0" disallow="tram rail_urban rail rail_electric rail_fast ship" speed="6.59" length="9.12" shape="1980.10,942.41 1982.07,943.90 1983.10,945.68 1983.20,947.76 1982.36,950.13"/>
    </edge>
    <edge id=":1307132056_5" function="internal">
        <lane id=":1307132056_5_0" index="0" disallow="tram rail_urban rail rail_electric rail_fast ship" speed="8.33" length="14.38" shape="1980.10,942.41 1992.74,949.26"/>
    </edge>
    <edge id=":1307132178_0" function="internal">
        <lane id=":1307132178_0_0" index="0" disallow="tram rail_urban rail rail_electric rail_fast ship" speed="8.33" length="14.40" shape="2011.27,955.39 1998.51,948.71"/>
    </edge>
    <edge id=":1307132178_1" function="internal">
        <lane id=":1307132178_1_0" index="0" disallow="tram rail_urban rail rail_electric rail_fast ship" speed="8.33" length="14.41" shape="2011.27,955.39 2007.77,954.22 2004.52,954.43 2001.51,956.03 1998.75,959.00"/>
    </edge>
    <edge id=":1307132178_2" function="internal">
        <lane id=":1307132178_2_0" index="0" disallow="tram rail_urban rail rail_electric rail_fast ship" speed="7.13" length="9.80" shape="2001.34,960.87 2003.25,958.80 2005.30,957.66 2007.48,957.47 2009.80,958.23"/>
    </edge>
    <edge id=":1307132178_3" function="internal">
        <lane id=":1307132178_3_0" index="0" disallow="tram rail_urban rail rail_electric rail_fast ship" speed="7.78" length="14.73" shape="2001.34,960.87 2003.25,957.22 2003.41,953.98 2001.84,951.14 1998.51,948.71"/>
    </edge>
    <edge id=":1307132178_4" function="internal">
        <lane id=":1307132178_4_0" index="0" disallow="tram rail_urban rail rail_electric rail_fast ship" speed="6.23" length="9.05" shape="1997.01,951.53 1999.05,953.03 2000.02,954.77 1999.92,956.76 1998.75,959.00"/>
    </edge>
    <edge id=":1307132178_5" function="internal">
        <lane id=":1307132178_5_0" index="0" disallow="tram rail_urban rail rail_electric rail_fast ship" speed="8.33" length="14.44" shape="1997.01,951.53 2009.80,958.23"/>
    </edge>
    <edge id=":1508910621_0" function="internal">
        <lane id=":1508910621_0_0" index="0" disallow="tram rail_urban rail rail_electric rail_fast ship" speed="13.89" length="0.18" shape="453.90,543.62 453.77,543.73"/>
    </edge>
    <edge id=":1508910621_1" function="internal">
        <lane id=":1508910621_1_0" index="0" disallow="tram rail_urban rail rail_electric rail_fast ship" speed="13.89" length="0.29" shape="455.73,546.26 455.96,546.07"/>
    </edge>
    <edge id=":1508910628_0" function="internal">
        <lane id=":1508910628_0_0" index="0" disallow="tram rail_urban rail rail_electric rail_fast ship" speed="13.89" length="0.30" shape="434.71,558.52 434.47,558.71"/>
    </edge>
    <edge id=":1508910628_1" function="internal">
        <lane id=":1508910628_1_0" index="0" disallow="tram rail_urban rail rail_electric rail_fast ship" speed="13.89" length="0.20" shape="436.52,561.17 436.67,561.05"/>
    </edge>
    <edge id=":1544954203_0" function="internal">
        <lane id=":1544954203_0_0" index="0" disallow="tram rail_urban rail rail_electric rail_fast ship" speed="8.33" length="14.66" shape="1999.72,655.44 1997.09,641.01"/>
    </edge>
    <edge id=":1544954203_1" function="internal">
        <lane id=":1544954203_1_0" index="0" disallow="tram rail_urban rail rail_electric rail_fast ship" speed="7.58" length="15.42" shape="1999.72,655.44 1998.32,651.25 1995.98,648.93 1992.72,648.48 1988.54,649.90"/>
    </edge>
    <edge id=":1544954203_2" function="internal">
        <lane id=":1544954203_2_0" index="0" disallow="tram rail_urban rail rail_electric rail_fast ship" speed="5.97" length="9.08" shape="1989.99,652.76 1992.45,651.92 1994.37,652.18 1995.75,653.55 1996.58,656.02"/>
    </edge>