<?xml version="1.0" encoding="UTF-8"?>

<!-- generated on 03/05/21 16:39:45 by Eclipse SUMO duarouter Version 1.7.0
<configuration xmlns:xsi="http://www.w3.org/2001/XMLSchema-instance" xsi:noNamespaceSchemaLocation="http://sumo.dlr.de/xsd/duarouterConfiguration.xsd">

    <input>
        <net-file value="bigtest.net.xml"/>
        <route-files value="moncross.trips.xml"/>
    </input>

    <output>
        <output-file value="moncross.rou.xml"/>
        <alternatives-output value="moncross.rou.alt.xml"/>
    </output>

    <report>
        <ignore-errors value="true"/>
    </report>

</configuration>
-->

<routes xmlns:xsi="http://www.w3.org/2001/XMLSchema-instance" xsi:noNamespaceSchemaLocation="http://sumo.dlr.de/xsd/routes_file.xsd">
    <vTypeDistribution id="1">
        <vType id="CAV" vClass="passenger" guiShape="truck" minGap="1" tau="1.5" sigma="0.05" speedDev="0.05" carFollowModel="IDM" probability="0"/>
        <vType id="HDC" vClass="passenger" tau="1" lcStrategic="0.5" probability="1" />
    </vTypeDistribution>
    <vehicle id="0" type="1" depart="0.00">
        <route edges="24394263#1 24394263#2 -131838565#9 -131838565#8 -131838565#7 -131838565#5 -131838565#4 -131838565#3 -131838565#2 -131838565#1 -131838565#0 196190046#0 196190046#1 22803388 196190054 196190031 24402205 42888553#0 42888553#1 42888553#2 42888553#3 42888553#4 -306865642#14 -306865642#12 -306865642#11 -306865642#10 -306865642#9 -306865642#8 -306865642#7 -306865642#6 -306865642#5 -306865642#4 -306865642#2 -306865642#1 -306865643#0 -131655426#9 -131655426#8 -131655426#7 -131655426#6 26370278#0 26370278#1 26370278#2 -81139324#2 -81139324#1 -81139324#0 -115782334#1"/>
    </vehicle>
    <vehicle id="1" type="1" depart="1.00">
        <route edges="-306865642#12 -306865642#11 -306865642#10 -306865642#9 -306865642#8 -306865642#7 -306865642#6 -306865642#5 -306865642#4 -306865642#2 -306865642#1 -306865643#0 -26370273#3 -26370273#2 -26370271#4 -26370271#3 -103736814#2 -103736814#1 26370271#0 26370271#1 26370271#2 26370271#3 26370271#4 26370273#2 26370273#3 131655426#11 306865642#1 306865642#2 306865642#4 306865642#5 306865642#6 306865642#7 306865642#8 306865642#9 306865642#10 306865642#11 306865642#12 422986456#0 772400089 476193290#1 476193290#2 192348885 -103736815 103736811#4 103736811#1 103736811#2 26370269#0 26370269#1 -272723394"/>
    </vehicle>
    <vehicle id="4" type="1" depart="4.00">
        <route edges="-95897169#0 -95897174#0 245232789#0 245232789#1 245232797#5 245232812 245232807#2 245232807#3 245232807#4 245232807#5 245232807#6 245232807#7 22803388 196190054 196190031 24402205 42888553#0 42888553#1 42888553#2 42888553#3 42888553#4 -306865642#14 -306865642#12 -306865642#11 -306865642#10 -306865642#9 -306865642#8 -306865642#7 -306865642#6 -306865642#5 -306865642#4 -306865642#2 -306865642#1 -306865643#0 -131655426#9 -131655426#8 -131655426#7 -131655426#6 -131655426#5 -131655426#4 -131655426#3 -131655426#1"/>
    </vehicle>
    <vehicle id="5" type="1" depart="5.00">
        <route edges="-26370272#1 -26370272#0 26370271#4 26370273#2 26370273#3 131655426#11 306865642#1 306865642#2 306865642#4 306865642#5 306865642#6 306865642#7 306865642#8 306865642#9 306865642#10 306865642#11 306865642#12 306865642#14 -42888553#4 -42888553#3 -42888553#2 -42888553#1 -42888553#0 34574016 196190029 131838565#0 131838565#1 131838565#2 131838565#3 131838565#4 131838565#5 131838565#6 131838565#8 131838565#9 131838565#10 131838565#11 131838565#12"/>
    </vehicle>
    <vehicle id="6" type="1" depart="6.00">
        <route edges="-115782334#1 115782323#0 81139324#1 81139324#2 -26370278#2 -26370278#1 -26370278#0 131655426#6 131655426#7 131655426#8 131655426#9 -26370273#3 -26370273#2 -26370273#1 -26370273#0"/>
    </vehicle>
    <vehicle id="7" type="1" depart="7.00">
        <route edges="24402205 34574016 196190029 196190046#0 196190046#1 22803388 196190054 131838566#0 131838566#2 131838566#3 131838566#4 131838566#5 131838566#6 131838566#7"/>
    </vehicle>
    <vehicle id="11" type="1" depart="11.00">
        <route edges="-52349263 -52349261#0 -95807620#1 -95807620#0 196190054 196190031 196190052 196190029 131838565#0 131838565#1 131838565#2 131838565#3 131838565#4 131838565#5 131838565#6 131838565#8 131838565#9 -24394263#2"/>
    </vehicle>
    <vehicle id="12" type="1" depart="12.00">
        <route edges="95807621#0 -24394260 -131838565#3 -131838565#2 -131838565#1 -131838565#0 196190046#0 196190046#1 22803388 196190054 131838566#0 131838566#2 131838566#3 131838566#4 131838566#5 131838566#6 131838566#7 306596442#1 306596445#0 -803436833#5 -803436833#4 -803436833#3 -803436833#2 -803436833#1 -803436833#0"/>
    </vehicle>
    <vehicle id="14" type="1" depart="14.00">
        <route edges="306865642#9 306865642#10 306865642#11 306865642#12 306865642#14 8232907 601761836 601761837#0 601761837#1 24001181 202855820 202855821#0"/>
    </vehicle>
    <vehicle id="17" type="1" depart="17.00">
        <route edges="-81139324#2 -81139324#1 -115782323#0 115782334#1 81139324#0 81139324#1 81139324#2 -26370278#2 -26370278#1 -26370278#0 131655426#6 131655426#7 131655426#8 131655426#9 131655426#11 306865642#1 306865642#2 306865642#4 306865642#5 306865642#6 306865642#7 306865642#8 306865642#9 306865642#10 306865642#11 306865642#12 422986456#0 772400089 476193290#1 476193290#2 192348885 -103736815 103736811#4 103736811#1 103736811#2 26370269#0 26370269#1 26370269#2 159860290"/>
    </vehicle>
    <vehicle id="18" type="1" depart="18.00">
        <route edges="306865642#14 8232907 601761836 601761837#0 601761837#1 24001181 202855820 202855821#0 202855821#1 202855821#2 202855821#3 202855821#4 202855821#5"/>
    </vehicle>
    <vehicle id="19" type="1" depart="19.00">
        <route edges="42888553#1 42888553#2 42888553#3 42888553#4 131655247#0 772400089 476193290#1 476193290#2 192348885"/>
    </vehicle>
    <vehicle id="22" type="1" depart="22.00">
        <route edges="-131838565#4 -131838565#3 -131838565#2 -131838565#1 -131838565#0 196190046#0 196190046#1 22803388 196190054 196190031 24402205 42888553#0 42888553#1 42888553#2 42888553#3 42888553#4 131655247#0 772400089 476193290#1 476193290#2 192348885 -103736815 103736811#4 103736811#1 103736811#2 103736811#3 103736815 -306446499"/>
    </vehicle>
    <vehicle id="23" type="1" depart="23.00">
        <route edges="-131838566#5 -131838566#4 -131838566#3 -131838566#2 -131838566#0 196190031 24402205 42888553#0 42888553#1 42888553#2 42888553#3 42888553#4 -306865642#14 -306865642#12 -306865642#11 -306865642#10 -306865642#9 -306865642#8"/>
    </vehicle>
    <vehicle id="25" type="1" depart="25.00">
        <route edges="-808865749#1 -808865749#0 -202855533#1 -202855533#0 24394255 -24001181 -601761837#1 -601761837#0 -601761836 -8232907 -306865642#14 -306865642#12 -306865642#11 -306865642#10 -306865642#9 -306865642#8 -306865642#7 -306865642#6 -306865642#5 -306865642#4 -306865642#2 -306865642#1 -306865643#0 -131655426#9 -131655426#8 -131655426#7 -131655426#6 26370278#0 26370278#1 26370278#2 -81139324#2 -81139324#1 -115782323#0 115782334#1 81139324#0 81139324#1 81139324#2 -26370278#2 -26370278#1 -26370278#0"/>
    </vehicle>
    <vehicle id="26" type="1" depart="26.00">
        <route edges="-306865638#3 -306865638#2 -306865638#1 -306865638#0 -589913464#0 -306446499 -476193290#2 -476193290#1 -476193290#0 -131655247#0 -42888553#4 161254539 161254537 42888553#2 42888553#3 42888553#4 -306865642#14 -306865642#12 -306865642#11 -306865642#10 -306865642#9 -306865642#8 -306865642#7 -306865642#6 -306865642#5 -306865642#4 -306865642#2 -306865642#1 -306865643#0 -131655426#9 -131655426#8 -131655426#7 -131655426#6 26370278#0 26370278#1 26370278#2 -81139324#2 -81139324#1 -115782323#0 115782334#1 81139324#0 81139324#1"/>
    </vehicle>
    <vehicle id="27" type="1" depart="27.00">
        <route edges="24394267#2 -131838565#12 -131838565#11 -131838565#10 -131838565#9 -131838565#8 -131838565#7 -131838565#5 -131838565#4 -131838565#3 -131838565#2 -131838565#1 -131838565#0 196190046#0 196190046#1 22803388 196190054 196190031 24402205 42888553#0 42888553#1 42888553#2 42888553#3 42888553#4 131655247#0 192348887#0 601761836 601761837#0 601761837#1 24001181 202855820 202855821#0 202855821#1 202855821#2"/>
    </vehicle>
    <vehicle id="33" type="1" depart="33.00">
        <route edges="-26370274 26370273#1 26370273#2 26370273#3 -131655426#9 -131655426#8 -131655426#7 -131655426#6 -131655426#5 -131655426#4 -131655426#3"/>
    </vehicle>
    <vehicle id="34" type="1" depart="34.00">
        <route edges="-42888553#2 -42888553#1 -42888553#0 34574016 196190029 196190046#0 196190046#1 22803388 196190054 196190031 24402205 42888553#0 42888553#1 42888553#2 42888553#3 42888553#4 -306865642#14 -306865642#12 -306865642#11 -306865642#10 -306865642#9 -306865642#8 -306865642#7 -306865642#6 -306865642#5 -306865642#4"/>
    </vehicle>
    <vehicle id="35" type="1" depart="35.00">
        <route edges="-26370271#3 -103736814#2 -103736814#1 26370271#0 26370271#1 26370271#2 26370271#3 26370271#4 26370273#2 26370273#3 131655426#11 306865642#1 306865642#2 306865642#4 306865642#5 306865642#6 306865642#7 306865642#8 306865642#9 306865642#10 306865642#11 306865642#12 306865642#14 8232907"/>
    </vehicle>
    <vehicle id="36" type="1" depart="36.00">
        <route edges="43202666#1 306865642#1 306865642#2 306865642#4 306865642#5 306865642#6 306865642#7 306865642#8 306865642#9 306865642#10 306865642#11 306865642#12 422986456#0 772400089 476193290#1 476193290#2 192348885 -103736815 103736811#4 103736811#1 103736811#2 103736811#3 103736815 -306446499 -476193290#2 -476193290#1"/>
    </vehicle>
    <vehicle id="38" type="1" depart="38.00">
        <route edges="803436833#2 803436833#3 803436833#4 803436833#5 -306596445#0 -306596442#1 -306596442#0 -131838566#6 -131838566#5 -131838566#4 -131838566#3 -131838566#2 -131838566#0 196190031 24402205 42888553#0 42888553#1 42888553#2 42888553#3 42888553#4 -306865642#14 -306865642#12 -306865642#11 -306865642#10 -306865642#9 -306865642#8 -306865642#7 -306865642#6 -306865642#5 -306865642#4 -306865642#2 115782327#1"/>
    </vehicle>
    <vehicle id="39" type="1" depart="39.00">
        <route edges="-306865638#3 -306865638#2 -306865638#1"/>
    </vehicle>
    <vehicle id="40" type="1" depart="40.00">
        <route edges="161254539 161254537 42888553#2 42888553#3 42888553#4 -306865642#14"/>
    </vehicle>
    <vehicle id="41" type="1" depart="41.00">
        <route edges="196190046#1 22803388 196190054 196190031 24402205 42888553#0 42888553#1 42888553#2 42888553#3 42888553#4 131655247#0 772400089 476193290#1 476193290#2 192348885 589913464#0"/>
    </vehicle>
    <vehicle id="42" type="1" depart="42.00">
        <route edges="-95807620#4 -95807620#3 -95807620#2 -95807620#1 -95807620#0 196190054 196190031 24402205 42888553#0 42888553#1 42888553#2 42888553#3 42888553#4 131655247#0 772400089 476193290#1 476193290#2 192348885 -103736815 103736811#4 103736811#1 103736811#2 26370269#0 26370269#1 26370269#2 26370269#3 26370270#1 -272723392#0"/>
    </vehicle>
    <vehicle id="44" type="1" depart="44.00">
        <route edges="-131838566#0 196190031 24402205 42888553#0 42888553#1 42888553#2 42888553#3 42888553#4 -306865642#14 -306865642#12 -306865642#11 -306865642#10 -306865642#9 -306865642#8 -306865642#7 -306865642#6 -306865642#5 -306865642#4 -306865642#2 -306865642#1 -306865643#0 -131655426#9"/>
    </vehicle>
    <vehicle id="47" type="1" depart="47.00">
        <route edges="-131838565#10 -131838565#9 -131838565#8 -131838565#7 -131838565#5 95807633#0 95807633#1 -95807621#1 -95807621#0"/>
    </vehicle>
    <vehicle id="48" type="1" depart="48.00">
        <route edges="95897171#0 -95897169#5 -95897169#4 -95897169#3 -95897169#2 -95897169#0 -95897174#0 245232789#0 245232789#1 245232797#5 245232812 245232807#2 245232807#3 245232807#4 245232807#5 245232807#6 245232807#7 22803388 196190054 131838566#0"/>
    </vehicle>
    <vehicle id="49" type="1" depart="49.00">
        <route edges="95807636#1 95807636#2 24394263#1 24394263#2 -131838565#9 -131838565#8 -131838565#7 -131838565#5 -131838565#4 -131838565#3 -131838565#2 -131838565#1 -131838565#0 196190046#0 196190046#1 22803388 196190054 196190031 24402205 34574016"/>
    </vehicle>
    <vehicle id="51" type="1" depart="51.00">
        <route edges="245232799#1 245232807#1 245232807#2 245232807#3 245232807#4 245232807#5 245232807#6 245232807#7 22803388 196190054 131838566#0 131838566#2 131838566#3 131838566#4"/>
    </vehicle>
    <vehicle id="53" type="1" depart="53.00">
        <route edges="-141134411 131755014#2 -307192473#2 -307192473#1 -307192473#0 -306865638#3 -306865638#2 -306865638#1 -306865638#0 -589913464#0 -103736815 103736811#4 103736811#1"/>
    </vehicle>
    <vehicle id="54" type="1" depart="54.00">
        <route edges="103736811#3 103736815 -306446499 -476193290#2 -476193290#1 -476193290#0 -131655247#0 -42888553#4 -42888553#3 -42888553#2 -42888553#1 -42888553#0 34574016 196190029 196190046#0 196190046#1 22803388 95807620#0 95807620#1 95807620#2 95807620#3"/>
    </vehicle>
    <vehicle id="55" type="1" depart="55.00">
        <route edges="43202666#1 306865642#1 306865642#2 306865642#4 306865642#5 306865642#6 306865642#7 306865642#8 306865642#9 306865642#10 306865642#11 306865642#12 306865642#14 -42888553#4 161254539 161254537 42888553#2 42888553#3 42888553#4 -306865642#14"/>
    </vehicle>
    <vehicle id="56" type="1" depart="56.00">
        <route edges="131655426#9 131655426#11 306865642#1 306865642#2 306865642#4 306865642#5 306865642#6 306865642#7 306865642#8 306865642#9 306865642#10 306865642#11 306865642#12 422986456#0 772400089 476193290#1 476193290#2 192348885 -103736815 103736811#4 103736811#1 103736811#2 26370269#0 26370269#1 26370269#2 26370269#3 -26370270#0"/>
    </vehicle>
    <vehicle id="57" type="1" depart="57.00">
        <route edges="803436833#1 803436833#2 803436833#3 803436833#4 803436833#5 -306596445#0 -306596442#1 -306596442#0 -131838566#6 -131838566#5 -131838566#4 -131838566#3 -131838566#2 -131838566#0 196190031 24402205 42888553#0 42888553#1 42888553#2"/>
    </vehicle>
    <vehicle id="60" type="1" depart="60.00">
        <route edges="26370271#4 26370273#2 26370273#3 131655426#11 306865642#1 306865642#2 306865642#4 306865642#5 306865642#6 306865642#7 306865642#8 306865642#9 306865642#10 306865642#11 306865642#12 306865642#14 -42888553#4 -42888553#3 -42888553#2 -42888553#1 -42888553#0 34574016 196190029 196190046#0 196190046#1 22803388 196190054 131838566#0 131838566#2 131838566#3 131838566#4 131838566#5"/>
    </vehicle>
    <vehicle id="61" type="1" depart="61.00">
        <route edges="26370278#1 26370278#2 -81139324#2 -81139324#1 -115782323#0 115782334#1 81139324#0 81139324#1 81139324#2 -26370278#2 -26370278#1 -26370278#0 131655426#6 131655426#7 131655426#8 131655426#9 131655426#11 306865642#1 306865642#2 306865642#4 306865642#5 306865642#6 306865642#7 306865642#8 306865642#9 306865642#10 306865642#11 306865642#12 306865642#14 -42888553#4 -42888553#3 -42888553#2 -42888553#1 -42888553#0 34574016 196190029 196190046#0 196190046#1 22803388 196190054 131838566#0 131838566#2"/>
    </vehicle>
    <vehicle id="63" type="1" depart="63.00">
        <route edges="-115782323#0 115782334#1 81139324#0 81139324#1 81139324#2 -26370278#2 -26370278#1 -26370278#0 131655426#6 131655426#7 131655426#8 131655426#9 131655426#11 306865642#1 306865642#2 306865642#4 306865642#5 306865642#6 306865642#7 306865642#8 306865642#9 306865642#10 306865642#11 306865642#12 306865642#14 8232907 601761836 601761837#0 601761837#1 28051329 202855533#0 202855533#1 808865749#0 808865749#1"/>
    </vehicle>
    <vehicle id="64" type="1" depart="64.00">
        <route edges="476193290#1 476193290#2 192348885 -103736815 103736811#4 103736811#1 103736811#2 103736811#3 103736815 -306446499 -476193290#2 -476193290#1 -476193290#0 -131655247#0 -42888553#4 161254539 161254537 42888553#2 42888553#3 42888553#4 -306865642#14 -306865642#12 -306865642#11 -306865642#10 -306865642#9 -306865642#8 -306865642#7 -306865642#6 -306865642#5 -306865642#4 -306865642#2 -306865642#1 -306865643#0 -26370273#3 -26370273#2 -26370271#4 -26370271#3 -103736814#2 -103736814#1 26370271#0 26370271#1 26370271#2 26370271#3 26370271#4 26370273#2 26370273#3 131655426#11 306865642#1 306865642#2 306865642#4 306865642#5 306865642#6 306865642#7 306865642#8 306865642#9 306865642#10 306865642#11 306865642#12 306865642#14"/>
    </vehicle>
    <vehicle id="65" type="1" depart="65.00">
        <route edges="-307192473#4 -307192473#2 -307192473#1 -307192473#0 -306865638#3 -306865638#2 -306865638#1 -306865638#0 -589913464#0 -306446499 -476193290#2 -476193290#1 -476193290#0 -131655247#0 -42888553#4 -42888553#3 -42888553#2 -42888553#1 -42888553#0 34574016 196190029 131838565#0 131838565#1 131838565#2 95807621#0 -24394260 -131838565#3 -131838565#2 -131838565#1 -131838565#0"/>
    </vehicle>
    <vehicle id="66" type="1" depart="66.00">
        <route edges="476193290#1 476193290#2 192348885 -103736815 103736811#4 103736811#1 103736811#2 103736811#3 103736815 -306446499 -476193290#2 -476193290#1 -476193290#0 -131655247#0 -42888553#4 -42888553#3 -42888553#2 -42888553#1 -42888553#0 34574016 196190029 196190046#0 196190046#1 22803388 95807620#0"/>
    </vehicle>
    <vehicle id="67" type="1" depart="67.00">
        <route edges="-131838565#8 -131838565#7 -131838565#5 -131838565#4 -131838565#3 -131838565#2 -131838565#1 -131838565#0 196190046#0 196190046#1 22803388 196190054 196190031 24402205 42888553#0 42888553#1 42888553#2 42888553#3 42888553#4 -306865642#14 -306865642#12 -306865642#11 -306865642#10 -306865642#9 -306865642#8 -306865642#7 -306865642#6 -306865642#5 -306865642#4 -306865642#2 -306865642#1 -306865643#0 -131655426#9 -131655426#8 -131655426#7 -131655426#6 26370278#0 26370278#1 26370278#2 -81139324#2 -81139324#1 -115782323#0 115782334#1 81139324#0 81139324#1 81139324#2 -26370278#2 -26370278#1 -26370278#0 131655426#6 131655426#7 131655426#8"/>
    </vehicle>
    <vehicle id="68" type="1" depart="68.00">
        <route edges="-131838565#12 -131838565#11 -131838565#10 -131838565#9 -131838565#8 -131838565#7 -131838565#5 -131838565#4 -131838565#3 -131838565#2 -131838565#1 -131838565#0 196190046#0 196190046#1 22803388 196190054 196190031 24402205 42888553#0 42888553#1 42888553#2 42888553#3 42888553#4 -306865642#14 -306865642#12 -306865642#11 -306865642#10 -306865642#9 -306865642#8 -306865642#7 -306865642#6 -306865642#5 -306865642#4 -306865642#2 -306865642#1 -306865643#0 -26370273#3 -26370273#2 -26370271#4 -26370271#3 -103736814#2 -103736814#1 26370271#0 26370271#1"/>
    </vehicle>
    <vehicle id="70" type="1" depart="70.00">
        <route edges="115782334#1 81139324#0 81139324#1 81139324#2 -26370278#2 -26370278#1 -26370278#0 131655426#6 131655426#7 131655426#8 131655426#9 131655426#11 306865642#1 306865642#2 306865642#4 306865642#5 306865642#6 306865642#7 306865642#8 306865642#9 306865642#10 306865642#11 306865642#12 422986456#0 772400089 476193290#1 476193290#2 192348885 589913464#0 589913464#2 306865638#1 306865638#2 306865638#3 306865638#4 307192473#1 307192473#2 -131755014#2 141134411"/>
    </vehicle>
    <vehicle id="71" type="1" depart="71.00">
        <route edges="-306865638#3 -306865638#2 -306865638#1 -306865638#0 -589913464#0 -306446499 -476193290#2 -476193290#1 -476193290#0 -131655247#0 -42888553#4 161254539 161254537 42888553#2 42888553#3"/>
    </vehicle>
    <vehicle id="72" type="1" depart="72.00">
        <route edges="-95897169#0 -95897174#0 245232789#0 245232789#1 245232797#5 245232812 245232807#2 245232807#3 245232807#4 245232807#5 245232807#6 245232807#7 22803388 196190054 196190031 24402205 42888553#0 42888553#1 42888553#2 42888553#3 42888553#4 -306865642#14 -306865642#12 -306865642#11 -306865642#10 -306865642#9 -306865642#8 -306865642#7 -306865642#6 -306865642#5 -306865642#4 -306865642#2 -306865642#1 -306865643#0 -131655426#9 -131655426#8 -131655426#7 -131655426#6 26370278#0 26370278#1 26370278#2 -81139324#2 -81139324#1 -115782323#0 115782334#1 81139324#0 81139324#1 81139324#2 -26370278#2 -26370278#1"/>
    </vehicle>
    <vehicle id="74" type="1" depart="74.00">
        <route edges="-26370270#1 -26370269#3 -26370269#2 -26370269#1 -26370269#0 103736811#3 103736815 -306446499 -476193290#2 -476193290#1 -476193290#0"/>
    </vehicle>
    <vehicle id="75" type="1" depart="75.00">
        <route edges="95897171#0 -95897169#5 -95897169#4 -95897169#3 -95897169#2 -95897169#0 -95897174#0 245232789#0 245232789#1 245232797#5 245232812 245232807#2 245232807#3 245232807#4 245232807#5 245232807#6 245232807#7 22803388 196190054 196190031 24402205"/>
    </vehicle>
    <vehicle id="76" type="1" depart="76.00">
        <route edges="-95897174#0 245232789#0 245232789#1 245232797#5 245232812 245232807#2 245232807#3 245232807#4 245232807#5 245232807#6 245232807#7 22803388 196190054 196190031 196190052 196190029 131838565#0 131838565#1 131838565#2 131838565#3 131838565#4"/>
    </vehicle>
    <vehicle id="77" type="1" depart="77.00">
        <route edges="-186071742#1 -188000581#1 161254537 42888553#2 42888553#3 42888553#4 131655247#0 772400089 476193290#1 476193290#2 192348885 -103736815 103736811#4 103736811#1 103736811#2 26370269#0 26370269#1 -272723394"/>
    </vehicle>
    <vehicle id="78" type="1" depart="78.00">
        <route edges="-52349261#1 -52349261#0 -95807620#1 -95807620#0 196190054 196190031 196190052 196190029 196190046#0"/>
    </vehicle>
    <vehicle id="79" type="1" depart="79.00">
        <route edges="-26370278#0 131655426#6 131655426#7 131655426#8 131655426#9 131655426#11 306865642#1 306865642#2 306865642#4 306865642#5 306865642#6 306865642#7 306865642#8 306865642#9 306865642#10 306865642#11 306865642#12 422986456#0 772400089 476193290#1 476193290#2 192348885 -103736815 103736811#4 103736811#1 103736811#2 26370269#0 26370269#1 26370269#2 26370269#3 -26370270#0 -272723393#0"/>
    </vehicle>
    <vehicle id="80" type="1" depart="80.00">
        <route edges="-131838565#13 -131838565#12 -131838565#11 -131838565#10 -131838565#9 -131838565#8 -131838565#7 -131838565#5 -131838565#4 -131838565#3 -131838565#2 -131838565#1 -131838565#0 196190046#0 196190046#1 22803388 196190054 196190031 24402205 42888553#0 42888553#1 42888553#2 42888553#3 42888553#4 131655247#0 192348887#0 601761836 601761837#0 601761837#1 24001181 -24394258 24394257#1"/>
    </vehicle>
    <vehicle id="81" type="1" depart="81.00">
        <route edges="-26370274 26370273#1 26370273#2 26370273#3 131655426#11 306865642#1 306865642#2 306865642#4 306865642#5 306865642#6 306865642#7 306865642#8 306865642#9 306865642#10 306865642#11 306865642#12 306865642#14 8232907 601761836 601761837#0"/>
    </vehicle>
    <vehicle id="82" type="1" depart="82.00">
        <route edges="42888553#0 42888553#1 42888553#2 42888553#3 42888553#4 -306865642#14 422986456#0 -131655247#0 -42888553#4 -42888553#3 -42888553#2 -42888553#1 -42888553#0 34574016 196190029 131838565#0 131838565#1 131838565#2 95807621#0 -24394260 -131838565#3"/>
    </vehicle>
    <vehicle id="85" type="1" depart="85.00">
        <route edges="81139324#2 -26370278#2 -26370278#1 -26370278#0 131655426#6 131655426#7 131655426#8 131655426#9 131655426#11 306865642#1 306865642#2 306865642#4 306865642#5 306865642#6 306865642#7 306865642#8 306865642#9 306865642#10 306865642#11 306865642#12 306865642#14 -42888553#4 -42888553#3 -42888553#2 -42888553#1 -42888553#0 34574016 196190029 131838565#0 131838565#1 131838565#2 131838565#3 131838565#4 131838565#5 131838565#6 186543389"/>
    </vehicle>
    <vehicle id="86" type="1" depart="86.00">
        <route edges="115782334#0 115782323#0 81139324#1 81139324#2 -26370278#2 -26370278#1 -26370278#0 131655426#6 131655426#7 131655426#8 131655426#9 -26370273#3 -26370273#2 -26370273#1 26370274"/>
    </vehicle>
    <vehicle id="88" type="1" depart="88.00">
        <route edges="-131838566#3 -131838566#2 -131838566#0 196190031 196190052 196190029 196190046#0 196190046#1 22803388 95807620#0 95807620#1 95807620#2 95807620#3 95807620#4 101087993#0 101087993#1"/>
    </vehicle>
    <vehicle id="89" type="1" depart="89.00">
        <route edges="-95897169#2 -95897169#0 -95897174#0 245232789#0 245232789#1 245232797#5 245232812 245232807#2 245232807#3 245232807#4 245232807#5 245232807#6 245232807#7 22803388 196190054 196190031 24402205 42888553#0 42888553#1 42888553#2 42888553#3 42888553#4 -306865642#14 -306865642#12 -306865642#11 -306865642#10 -306865642#9 -306865642#8 -306865642#7 -306865642#6 -306865642#5 -306865642#4 -306865642#2 115782338"/>
    </vehicle>
    <vehicle id="90" type="1" depart="90.00">
        <route edges="245232811 245232801 503869257#1 245232795#0 245232795#1"/>
    </vehicle>
    <vehicle id="92" type="1" depart="92.00">
        <route edges="-95807620#5 -95807620#4 -95807620#3 -95807620#2 -95807620#1 -95807620#0 196190054 131838566#0 131838566#2 131838566#3 131838566#4 131838566#5 131838566#6 131838566#7 306596442#1 306596445#0 -803436833#5 -803436833#4 -803436833#3 -803436833#2 -803436833#1"/>
    </vehicle>
    <vehicle id="94" type="1" depart="94.00">
        <route edges="-26370269#1 -26370269#0 103736811#3 103736815 -306446499 -476193290#2 -476193290#1 -476193290#0 -131655247#0 -42888553#4 161254539 161254537 42888553#2 42888553#3 42888553#4 -306865642#14 -306865642#12 -306865642#11 -306865642#10 -306865642#9 -306865642#8 -306865642#7 -306865642#6 -306865642#5 -306865642#4 -306865642#2 -306865642#1 -306865643#0 -26370273#3 -26370273#2 -26370271#4 -26370271#3 -26370271#2 -26370271#1 -26370271#0 103736814#1 103736814#2"/>
    </vehicle>
    <vehicle id="95" type="1" depart="95.00">
        <route edges="-95897169#0 -95897174#0 245232789#0 245232789#1 245232797#5 245232812 245232807#2 245232807#3 245232807#4 245232807#5 245232807#6 245232807#7 22803388 196190054 196190031 24402205 42888553#0 42888553#1 42888553#2 42888553#3 42888553#4 -306865642#14 -306865642#12 -306865642#11 -306865642#10 -306865642#9 -306865642#8"/>
    </vehicle>
    <vehicle id="97" type="1" depart="97.00">
        <route edges="101087991#0 -101087993#1 -101087993#0 -95807620#4 -95807620#3 -95807620#2 -95807620#1 -95807620#0 196190054 196190031 24402205 42888553#0 42888553#1 42888553#2 42888553#3 42888553#4 -306865642#14 422986456#0"/>
    </vehicle>
    <vehicle id="100" type="1" depart="100.00">
        <route edges="95807636#0 95807636#1 95807636#2 24394263#1 24394263#2 -131838565#9 -131838565#8 -131838565#7 -131838565#5 -131838565#4 -131838565#3 -131838565#2 -131838565#1 -131838565#0 196190046#0 196190046#1 22803388 196190054 196190031 24402205 42888553#0 42888553#1 42888553#2 42888553#3 42888553#4 131655247#0 192348887#0 601761836 601761837#0 601761837#1 28051329 202855533#0 202855533#1 808865749#0"/>
    </vehicle>
    <vehicle id="102" type="1" depart="102.00">
        <route edges="131655426#3 131655426#4 131655426#5 26370278#0 26370278#1 26370278#2 -81139324#2 -81139324#1 -115782323#0 115782334#1 81139324#0 81139324#1 81139324#2 -26370278#2"/>
    </vehicle>
    <vehicle id="103" type="1" depart="103.00">
        <route edges="-95807620#5 -95807620#4 -95807620#3 -95807620#2 -95807620#1 -95807620#0 196190054 196190031 196190052 196190029 131838565#0 131838565#1 131838565#2 95807621#0 -24394260 -131838565#3 -131838565#2 -131838565#1"/>
    </vehicle>
    <vehicle id="104" type="1" depart="104.00">
        <route edges="-81139324#2 -81139324#1 -115782323#0 115782334#1 81139324#0 81139324#1 81139324#2 -26370278#2 -26370278#1 -26370278#0 131655426#6 131655426#7 131655426#8 131655426#9 131655426#11 306865642#1 306865642#2 306865642#4 306865642#5 306865642#6 306865642#7 306865642#8 306865642#9 306865642#10 306865642#11 306865642#12 306865642#14 -42888553#4 -42888553#3 -42888553#2 -42888553#1 -42888553#0 34574016 196190029 196190046#0 245232806#0 245232806#1 245232806#2 245232806#3 245232806#4 245232806#5 245232806#6 245232827 245232801 245232788 95897174#0 95897169#0 95897169#2 95897169#3"/>
    </vehicle>
    <vehicle id="105" type="1" depart="105.00">
        <route edges="-306865638#3 -306865638#2 -306865638#1 -306865638#0 -589913464#0 -306446499 -476193290#2 -476193290#1 -476193290#0 -131655247#0 -42888553#4 161254539 161254537 42888553#2 42888553#3 42888553#4 -306865642#14 -306865642#12 -306865642#11 -306865642#10 -306865642#9 -306865642#8 -306865642#7 -306865642#6 -306865642#5 -306865642#4 -306865642#2 -306865642#1 -306865643#0 -26370273#3 -26370273#2 -26370273#1 26370274"/>
    </vehicle>
    <vehicle id="107" type="1" depart="107.00">
        <route edges="95807621#0 -24394260 -131838565#3 -131838565#2 -131838565#1 -131838565#0 196190046#0 245232806#0 245232806#1 245232806#2 245232806#3 245232806#4 245232806#5 245232806#6 245232827 245232801 245232788 95897174#0"/>
    </vehicle>
    <vehicle id="109" type="1" depart="109.00">
        <route edges="-24001181 -601761837#1 -601761837#0 -601761836 -8232907 -42888553#4 -42888553#3 -42888553#2 -42888553#1"/>
    </vehicle>
    <vehicle id="110" type="1" depart="110.00">
        <route edges="95807636#0 95807636#1 95807636#2 24394263#1 24394263#2 -131838565#9 -131838565#8 -131838565#7 -131838565#5 -131838565#4 -131838565#3 -131838565#2 -131838565#1 -131838565#0 196190046#0 196190046#1 22803388 196190054 196190031 24402205 42888553#0 42888553#1 42888553#2 42888553#3 42888553#4 131655247#0 192348887#0"/>
    </vehicle>
    <vehicle id="113" type="1" depart="113.00">
        <route edges="131755014#0 131755014#1 131755014#2 -307192473#2 -307192473#1 -307192473#0 -306865638#3 -306865638#2 -306865638#1 -306865638#0 -589913464#0 -103736815 103736811#4 103736811#1 103736811#2 103736811#3 103736815 589913464#0 589913464#2 306865638#1 306865638#2 306865638#3 306865638#4 307192473#1"/>
    </vehicle>
    <vehicle id="115" type="1" depart="115.00">