<?xml version="1.0" encoding="UTF-8"?>

<!-- generated on 02/20/21 04:07:49 by Eclipse SUMO duarouter Version 1.7.0
<configuration xmlns:xsi="http://www.w3.org/2001/XMLSchema-instance" xsi:noNamespaceSchemaLocation="http://sumo.dlr.de/xsd/duarouterConfiguration.xsd">

    <input>
        <net-file value="testnet.net.xml"/>
        <route-files value="moncross.trips.xml"/>
    </input>

    <output>
        <output-file value="moncross.rou.xml"/>
        <alternatives-output value="moncross.rou.alt.xml"/>
    </output>

    <report>
        <ignore-errors value="true"/>
    </report>

</configuration>
-->

<routes xmlns:xsi="http://www.w3.org/2001/XMLSchema-instance" xsi:noNamespaceSchemaLocation="http://sumo.dlr.de/xsd/routes_file.xsd">
    <vTypeDistribution id="typedist1">
        <vType id="CAV4" vClass="passenger" speedDev="0.05" carFollowModel="IDM" minGap="0.5" tau="0.5" probability="0.7"/>
        <vType id="CAV2" vClass="passenger" speedDev="0.05" carFollowModel="IDM" minGap="0.5" tau="0.8" probability="0.2"/>
        <vType id="HDC" vClass="passenger" tau="0.01" lcStrategic="0.5" probability="0.1" />
    </vTypeDistribution>

    <vehicle id="1" depart="1.00">
        <route edges="-306865642#12 -306865642#11 -306865642#10 -306865642#9 -306865642#8 -306865642#7 -306865642#6 -306865642#5 -306865642#4 -306865642#2 -306865642#1 -306865643#0 -26370273#3 -26370273#2 -26370271#4 -26370271#3 -103736814#2 -103736814#1 26370271#0 26370271#1 26370271#2 26370271#3 26370271#4 26370273#2 26370273#3 131655426#11 306865642#1 306865642#2 306865642#4 306865642#5 306865642#6 306865642#7 306865642#8 306865642#9 306865642#10 306865642#11 306865642#12 422986456#0 772400089 476193290#1 476193290#2 192348885 -103736815 103736811#4 103736811#1 103736811#2 26370269#0 26370269#1 -272723394"/>
    </vehicle>
    <vehicle id="4" depart="4.00">
        <route edges="-95897169#2 -95897169#0 -95897174#0 245232789#0 245232789#1 245232797#5 245232812 245232807#2 245232807#3 245232807#4 245232807#5 245232807#6 245232807#7 22803388 196190054 196190031 24402205 42888553#0 42888553#1 42888553#2 42888553#3 42888553#4 -306865642#14 -306865642#12 -306865642#11 -306865642#10 -306865642#9 -306865642#8 -306865642#7 -306865642#6 -306865642#5 -306865642#4 -306865642#2 -306865642#1 -306865643#0 -131655426#9 -131655426#8 -131655426#7 -131655426#6 -131655426#5 -131655426#4 -131655426#3"/>
    </vehicle>
    <vehicle id="5" depart="5.00">
        <route edges="-26370272#1 -26370272#0 26370271#4 26370273#2 26370273#3 131655426#11 306865642#1 306865642#2 306865642#4 306865642#5 306865642#6 306865642#7 306865642#8 306865642#9 306865642#10 306865642#11 306865642#12 306865642#14 -42888553#4 -42888553#3 -42888553#2 -42888553#1 -42888553#0 34574016 196190029 131838565#0 131838565#1 131838565#2 131838565#3 131838565#4 131838565#5 131838565#6 131838565#8 131838565#9 131838565#10 131838565#11 131838565#12"/>
    </vehicle>
    <vehicle id="6" depart="6.00">
        <route edges="-115782334#1 115782323#0 81139324#1 81139324#2 -26370278#2 -26370278#1 -26370278#0 131655426#6 131655426#7 131655426#8 131655426#9 -26370273#3 -26370273#2 -26370273#1 -26370273#0"/>
    </vehicle>
    <vehicle id="7" depart="7.00">
        <route edges="24394267#2 -131838565#12 -131838565#11 -131838565#10 -131838565#9 -131838565#8 -131838565#7 -131838565#5 -131838565#4 -131838565#3 -131838565#2 -131838565#1 -131838565#0 196190046#0 196190046#1 22803388 95807620#0 95807620#1 95807620#2 95807620#3 95807620#4 95807620#5 95807620#7 131881078#1"/>
    </vehicle>
    <vehicle id="8" depart="8.00">
        <route edges="-26370272#1 -26370272#0 26370271#4 26370273#2 26370273#3 131655426#11 306865642#1 306865642#2 306865642#4 306865642#5 306865642#6 306865642#7 306865642#8 306865642#9 306865642#10 306865642#11 306865642#12 306865642#14 -42888553#4 -42888553#3 -42888553#2 -42888553#1 -42888553#0 34574016 196190029 196190046#0"/>
    </vehicle>
    <vehicle id="11" depart="11.00">
        <route edges="-52349263 -52349261#0 -95807620#1 -95807620#0 196190054 196190031 196190052 196190029 131838565#0 131838565#1 131838565#2 131838565#3 131838565#4 131838565#5 131838565#6 131838565#8 131838565#9 -24394263#2"/>
    </vehicle>
    <vehicle id="12" depart="12.00">
        <route edges="95807621#1 -95807633#1 -95807633#0 -131838565#4 -131838565#3 -131838565#2 -131838565#1 -131838565#0 196190046#0 196190046#1 22803388 196190054 131838566#0 131838566#2 131838566#3 131838566#4 131838566#5 131838566#6 131838566#7 306596442#1 306596445#0 -803436833#5 -803436833#4 -803436833#3 -803436833#2 -803436833#1"/>
    </vehicle>
    <vehicle id="18" depart="18.00">
        <route edges="306865642#2 306865642#4 306865642#5 306865642#6 306865642#7 306865642#8 306865642#9 306865642#10 306865642#11 306865642#12 306865642#14 8232907 601761836 601761837#0 601761837#1 24001181 202855820 202855821#0 202855821#1 202855821#2 202855821#3 202855821#4 202855821#5"/>
    </vehicle>
    <vehicle id="19" depart="19.00">
        <route edges="42888553#2 42888553#3 42888553#4 -306865642#14 -306865642#12 -306865642#11 -306865642#10 -306865642#9 -306865642#8 -306865642#7 -306865642#6 -306865642#5 -306865642#4 -306865642#2 -306865642#1 -306865643#0 -26370273#3 -26370273#2 -26370271#4 -26370271#3 -103736814#2 -103736814#1 26370271#0 26370271#1 26370271#2 26370271#3 26370271#4 26370273#2 26370273#3 131655426#11 306865642#1 306865642#2 306865642#4 306865642#5 306865642#6 306865642#7 306865642#8 306865642#9 306865642#10 306865642#11 306865642#12 306865642#14 -42888553#4 161254539 188000581#1"/>
    </vehicle>
    <vehicle id="20" depart="20.00">
        <route edges="245232806#6 245232827 245232801 245232788 95897174#0 95897169#0 95897169#2 95897179 -95897169#3 -95897169#2 -95897169#0 -95897174#0 245232789#0 245232789#1 245232797#5 245232812 245232807#2 245232807#3 245232807#4 245232807#5 245232807#6 245232807#7 22803388 196190054 196190031 24402205 42888553#0 42888553#1 42888553#2 42888553#3 42888553#4 -306865642#14 -306865642#12 -306865642#11 -306865642#10 -306865642#9 -306865642#8 -306865642#7 -306865642#6 -306865642#5 -306865642#4 -306865642#2 -306865642#1 -306865643#0 -131655426#9"/>
    </vehicle>
    <vehicle id="22" depart="22.00">
        <route edges="-131838565#5 -131838565#4 -131838565#3 -131838565#2 -131838565#1 -131838565#0 196190046#0 196190046#1 22803388 196190054 196190031 24402205 42888553#0 42888553#1 42888553#2 42888553#3 42888553#4 -306865642#14 -306865642#12 -306865642#11 -306865642#10 -306865642#9 -306865642#8 -306865642#7 -306865642#6 -306865642#5 -306865642#4 -306865642#2 -306865642#1 -43202666#1 -288349250"/>
    </vehicle>
    <vehicle id="23" depart="23.00">
        <route edges="-131838566#6 -131838566#5 -131838566#4 -131838566#3 -131838566#2 -131838566#0 196190031 24402205 42888553#0 42888553#1 42888553#2 42888553#3 42888553#4 -306865642#14 -306865642#12 -306865642#11 -306865642#10 -306865642#9 -306865642#8"/>
    </vehicle>
    <vehicle id="24" depart="24.00">
        <route edges="24394263#0 -95807636#2 -95807636#1 -95807614"/>
    </vehicle>
    <vehicle id="25" depart="25.00">
        <route edges="-81139324#0 -115782334#1 115782323#0 81139324#1 81139324#2 -26370278#2 -26370278#1 -26370278#0"/>
    </vehicle>
    <vehicle id="26" depart="26.00">
        <route edges="-306865638#3 -306865638#2 -306865638#1 -306865638#0 -589913464#0 -306446499 -476193290#2 -476193290#1 -476193290#0 -131655247#0 -42888553#4 -42888553#3 -42888553#2 -42888553#1 -42888553#0 34574016 196190029 196190046#0 196190046#1 22803388 196190054 196190031 24402205 42888553#0 42888553#1 42888553#2 42888553#3 42888553#4 -306865642#14 -306865642#12 -306865642#11 -306865642#10 -306865642#9 -306865642#8 -306865642#7 -306865642#6 -306865642#5 -306865642#4 -306865642#2 -306865642#1 -306865643#0 -131655426#9 -131655426#8 -131655426#7 -131655426#6 26370278#0 26370278#1 26370278#2 81139324#3"/>
    </vehicle>
    <vehicle id="27" depart="27.00">
        <route edges="24394267#1 24394267#2 -131838565#12 -131838565#11 -131838565#10 -131838565#9 -131838565#8 -131838565#7 -131838565#5 -131838565#4 -131838565#3 -131838565#2 -131838565#1 -131838565#0 196190046#0 196190046#1 22803388 196190054 196190031 24402205 42888553#0 42888553#1 42888553#2 42888553#3 42888553#4 -306865642#14 -306865642#12 -306865642#11 -306865642#10 -306865642#9 -306865642#8 -306865642#7 -306865642#6 -306865642#5 -306865642#4 -306865642#2 -306865642#1 -306865643#0 -26370273#3 -26370273#2 -26370271#4 -26370271#3 -103736814#2 -103736814#1 26370271#0 26370271#1 26370271#2 26370271#3 26370271#4 26370273#2 26370273#3 131655426#11 306865642#1 306865642#2 306865642#4 306865642#5 306865642#6 306865642#7 306865642#8 306865642#9 306865642#10 306865642#11 306865642#12 306865642#14 8232907 601761836 601761837#0 601761837#1 24001181 202855820 202855821#0 202855821#1"/>
    </vehicle>
    <vehicle id="32" depart="32.00">
        <route edges="306865642#8 306865642#9 306865642#10 306865642#11 306865642#12 306865642#14 -42888553#4 -42888553#3 -42888553#2 -42888553#1 -42888553#0 34574016 196190029 196190046#0 196190046#1 22803388 196190054 196190031 24402205 42888553#0 42888553#1 42888553#2 42888553#3 42888553#4 -306865642#14 -306865642#12 -306865642#11 -306865642#10 -306865642#9 -306865642#8 -306865642#7 -306865642#6 -306865642#5 -306865642#4 -306865642#2 -306865642#1 -306865643#0 -26370273#3 -26370273#2 -26370271#4 26370272#0 26370272#1"/>
    </vehicle>
    <vehicle id="33" depart="33.00">
        <route edges="-26370274 26370273#1 26370273#2 26370273#3 -131655426#9 -131655426#8 -131655426#7 -131655426#6 -131655426#5 -131655426#4"/>
    </vehicle>
    <vehicle id="34" depart="34.00">
        <route edges="-42888553#2 -42888553#1 -42888553#0 34574016 196190029 196190046#0 196190046#1 22803388 196190054 196190031 24402205 42888553#0 42888553#1 42888553#2 42888553#3 42888553#4 -306865642#14 -306865642#12 -306865642#11 -306865642#10 -306865642#9 -306865642#8 -306865642#7 -306865642#6 -306865642#5 -306865642#4"/>
    </vehicle>
    <vehicle id="35" depart="35.00">
        <route edges="-26370271#3 -103736814#2 -103736814#1 26370271#0 26370271#1 26370271#2 26370271#3 26370271#4 26370273#2 26370273#3 131655426#11 306865642#1 306865642#2 306865642#4 306865642#5 306865642#6 306865642#7 306865642#8 306865642#9 306865642#10 306865642#11 306865642#12 306865642#14 -42888553#4 -42888553#3 -42888553#2 -42888553#1 -42888553#0 34574016 196190029 196190046#0 196190046#1 22803388 95807620#0"/>
    </vehicle>
    <vehicle id="38" depart="38.00">
        <route edges="803436833#4 803436833#5 -306596445#0 -306596442#1 -306596442#0 -131838566#6 -131838566#5 -131838566#4 -131838566#3 -131838566#2 -131838566#0 196190031 24402205 42888553#0 42888553#1 42888553#2 42888553#3 42888553#4 -306865642#14 -306865642#12 -306865642#11 -306865642#10 -306865642#9 -306865642#8 -306865642#7 -306865642#6 -306865642#5 -306865642#4 -306865642#2 115782327#1"/>
    </vehicle>
    <vehicle id="39" depart="39.00">
        <route edges="-306865638#3 -306865638#2 -306865638#1"/>
    </vehicle>
    <vehicle id="40" depart="40.00">
        <route edges="176934263 -131838565#11 -131838565#10 -131838565#9 -131838565#8 -131838565#7 -131838565#5 -131838565#4 -131838565#3 -131838565#2 -131838565#1 -131838565#0 196190046#0 196190046#1 22803388 196190054 196190031 24402205 42888553#0 42888553#1 42888553#2 42888553#3 42888553#4 -306865642#14"/>
    </vehicle>
    <vehicle id="41" depart="41.00">
        <route edges="196190046#0 196190046#1 22803388 196190054 196190031 24402205 42888553#0 42888553#1 42888553#2 42888553#3 42888553#4 131655247#0 772400089 476193290#1 476193290#2 192348885 589913464#0 589913464#2"/>
    </vehicle>
    <vehicle id="42" depart="42.00">
        <route edges="-95807620#5 -95807620#4 -95807620#3 -95807620#2 -95807620#1 -95807620#0 196190054 196190031 24402205 42888553#0 42888553#1 42888553#2 42888553#3 42888553#4 131655247#0 772400089 476193290#1 476193290#2 192348885 -103736815 103736811#4 103736811#1 103736811#2 26370269#0 26370269#1 26370269#2 26370269#3 26370270#1 -272723392#0"/>
    </vehicle>
    <vehicle id="43" depart="43.00">
        <route edges="95897174#0 95897169#0 95897169#2 95897179 -95897169#3 -95897169#2 -95897169#0 -95897174#0 245232789#0 245232789#1 245232797#5 245232812 245232807#2 245232807#3 245232807#4 245232807#5 245232807#6 245232807#7 22803388 196190054 196190031 196190052 196190029 131838565#0 131838565#1 131838565#2 131838565#3 131838565#4 131838565#5 131838565#6 131838565#8 131838565#9 131838565#10 131838565#11 131838565#12 131838565#13"/>
    </vehicle>
    <vehicle id="44" depart="44.00">
        <route edges="-131838566#2 -131838566#0 196190031 24402205 42888553#0 42888553#1 42888553#2 42888553#3 42888553#4 131655247#0 772400089 476193290#1 476193290#2 192348885 589913464#0 589913464#2 306865638#1 306865638#2 306865638#3 306865638#4 307192473#1 307192473#2 -131755014#2 -131755014#1 -131755014#0"/>
    </vehicle>
    <vehicle id="47" depart="47.00">
        <route edges="-131838565#10 -131838565#9 -131838565#8 -131838565#7 -131838565#5 95807633#0 95807633#1 -95807621#1 -95807621#0"/>
    </vehicle>
    <vehicle id="48" depart="48.00">
        <route edges="95897174#0 95897169#0 95897169#2 95897179 -95897169#3 -95897169#2 -95897169#0 -95897174#0 245232789#0 245232789#1 245232797#5 245232812 245232807#2 245232807#3 245232807#4 245232807#5 245232807#6 245232807#7 22803388 196190054 131838566#0"/>
    </vehicle>
    <vehicle id="49" depart="49.00">
        <route edges="95807636#2 24394263#1 24394263#2 -131838565#9 -131838565#8 -131838565#7 -131838565#5 -131838565#4 -131838565#3 -131838565#2 -131838565#1 -131838565#0 196190046#0 196190046#1 22803388 196190054 196190031 24402205 42888553#0 42888553#1 42888553#2 42888553#3 42888553#4 -306865642#14 422986456#0"/>
    </vehicle>
    <vehicle id="50" depart="50.00">
        <route edges="-103736814#1 26370271#0 26370271#1 26370271#2 26370271#3 26370271#4 26370273#2 26370273#3 131655426#11 306865642#1 306865642#2 306865642#4 306865642#5 306865642#6 306865642#7 306865642#8 306865642#9 306865642#10 306865642#11 306865642#12 306865642#14 -42888553#4 -42888553#3 -42888553#2 -42888553#1 -42888553#0 34574016 196190029 196190046#0 245232806#0 245232806#1 245232806#2 245232806#3 245232806#4 245232806#5 245232806#6 245232827 245232801 245232788 95897174#0 95897169#0 95897169#2 95897179 -95897169#3 -95897169#2 -95897169#0 -95897174#0 245232789#0 245232789#1 245232797#5 245232812 245232807#2 245232807#3 245232807#4"/>
    </vehicle>
    <vehicle id="51" depart="51.00">
        <route edges="245232799#1 245232807#1 245232807#2 245232807#3 245232807#4 245232807#5 245232807#6 245232807#7 22803388 196190054 131838566#0 131838566#2 131838566#3 131838566#4 131838566#5"/>
    </vehicle>
    <vehicle id="57" depart="57.00">
        <route edges="803436833#3 803436833#4 803436833#5 -306596445#0 -306596442#1 -306596442#0 -131838566#6 -131838566#5 -131838566#4 -131838566#3 -131838566#2 -131838566#0 196190031 24402205 42888553#0 42888553#1 42888553#2 42888553#3"/>
    </vehicle>
    <vehicle id="58" depart="58.00">
        <route edges="-306865643#0 -26370273#3 -26370273#2 -26370271#4 -26370271#3 -103736814#2 -103736814#1 26370271#0 26370271#1 26370271#2 26370271#3 26370271#4 26370273#2 26370273#3 131655426#11 306865642#1 306865642#2 306865642#4 306865642#5 306865642#6 306865642#7 306865642#8 306865642#9 306865642#10 306865642#11 306865642#12 306865642#14 -42888553#4 -42888553#3 -42888553#2 -42888553#1 -42888553#0 34574016 196190029 131838565#0 131838565#1 131838565#2 131838565#3 24394260"/>
    </vehicle>
    <vehicle id="61" depart="61.00">
        <route edges="26370278#1 26370278#2 -81139324#2 -81139324#1 -115782323#0 115782334#1 81139324#0 81139324#1 81139324#2 -26370278#2 -26370278#1 -26370278#0 131655426#6 131655426#7 131655426#8 131655426#9 131655426#11 306865642#1 306865642#2 306865642#4 306865642#5 306865642#6 306865642#7 306865642#8 306865642#9 306865642#10 306865642#11 306865642#12 306865642#14 -42888553#4 -42888553#3 -42888553#2 -42888553#1 -42888553#0 34574016 196190029 196190046#0 196190046#1 22803388 196190054 131838566#0 131838566#2"/>
    </vehicle>
    <vehicle id="63" depart="63.00">
        <route edges="-115782323#0 115782334#1 81139324#0"/>
    </vehicle>
    <vehicle id="65" depart="65.00">
        <route edges="-307192473#4 -307192473#2 -307192473#1 -307192473#0 -306865638#3 -306865638#2 -306865638#1 -306865638#0 -589913464#0 -306446499 -476193290#2 -476193290#1 -476193290#0 -131655247#0 -42888553#4 -42888553#3 -42888553#2 -42888553#1 -42888553#0 34574016 196190029 131838565#0 131838565#1 131838565#2 95807621#0 -24394260 -131838565#3 -131838565#2 -131838565#1"/>
    </vehicle>
    <vehicle id="67" depart="67.00">
        <route edges="-131838565#8 -131838565#7 -131838565#5 -131838565#4 -131838565#3 -131838565#2 -131838565#1 -131838565#0 196190046#0 196190046#1 22803388 196190054 196190031 24402205 42888553#0 42888553#1 42888553#2 42888553#3 42888553#4 -306865642#14 -306865642#12 -306865642#11 -306865642#10 -306865642#9 -306865642#8 -306865642#7 -306865642#6 -306865642#5 -306865642#4 -306865642#2 -306865642#1 -306865643#0 -131655426#9 -131655426#8 -131655426#7 -131655426#6 26370278#0 26370278#1 26370278#2 -81139324#2 -81139324#1 -115782323#0 115782334#1 81139324#0 81139324#1 81139324#2 -26370278#2 -26370278#1 -26370278#0 131655426#6 131655426#7 131655426#8"/>
    </vehicle>
    <vehicle id="68" depart="68.00">
        <route edges="-131838565#13 -131838565#12 -131838565#11 -131838565#10 -131838565#9 -131838565#8 -131838565#7 -131838565#5 -131838565#4 -131838565#3 -131838565#2 -131838565#1 -131838565#0 196190046#0 196190046#1 22803388 196190054 196190031 24402205 42888553#0 42888553#1 42888553#2 42888553#3 42888553#4 -306865642#14 -306865642#12 -306865642#11 -306865642#10 -306865642#9 -306865642#8 -306865642#7 -306865642#6 -306865642#5 -306865642#4 -306865642#2 -306865642#1 -306865643#0 -26370273#3 -26370273#2 -26370271#4 -26370271#3 -103736814#2 -103736814#1 26370271#0"/>
    </vehicle>
    <vehicle id="70" depart="70.00">
        <route edges="115782334#1 81139324#0 81139324#1 81139324#2 -26370278#2 -26370278#1 -26370278#0 131655426#6 131655426#7 131655426#8 131655426#9 131655426#11 306865642#1 306865642#2 306865642#4 306865642#5 306865642#6 306865642#7 306865642#8 306865642#9 306865642#10 306865642#11 306865642#12 422986456#0 772400089 476193290#1 476193290#2 192348885 -103736815 103736811#4 103736811#1 103736811#2 26370269#0 26370269#1 26370269#2 159860290"/>
    </vehicle>
    <vehicle id="71" depart="71.00">
        <route edges="-306865638#3 -306865638#2 -306865638#1 -306865638#0 -589913464#0 -306446499 -476193290#2 -476193290#1 -476193290#0 -131655247#0 -42888553#4 -42888553#3 -42888553#2 -42888553#1 -42888553#0 34574016 196190029 196190046#0 196190046#1 22803388 196190054 196190031 24402205 42888553#0 42888553#1 42888553#2 42888553#3"/>
    </vehicle>
    <vehicle id="72" depart="72.00">
        <route edges="-95897169#2 -95897169#0 -95897174#0 245232789#0 245232789#1 245232797#5 245232812 245232807#2 245232807#3 245232807#4 245232807#5 245232807#6 245232807#7 22803388 196190054 196190031 24402205 42888553#0 42888553#1 42888553#2 42888553#3 42888553#4 -306865642#14 -306865642#12 -306865642#11 -306865642#10 -306865642#9 -306865642#8 -306865642#7 -306865642#6 -306865642#5 -306865642#4 -306865642#2 -306865642#1 -306865643#0 -131655426#9 -131655426#8 -131655426#7 -131655426#6 26370278#0 26370278#1 26370278#2 -81139324#2 -81139324#1 -115782323#0 115782334#1 81139324#0 81139324#1 81139324#2 -26370278#2 -26370278#1"/>
    </vehicle>
    <vehicle id="76" depart="76.00">
        <route edges="-95897174#1 -95897174#0 245232789#0 245232789#1 245232797#5 245232812 245232807#2 245232807#3 245232807#4 245232807#5 245232807#6 245232807#7 22803388 196190054 196190031 196190052 196190029 131838565#0 131838565#1 131838565#2 131838565#3 131838565#4 131838565#5"/>
    </vehicle>
    <vehicle id="77" depart="77.00">
        <route edges="-186533894#0 -95807621#1 -95807621#0 -131838565#2 -131838565#1 -131838565#0 196190046#0 196190046#1 22803388 196190054 196190031 24402205 42888553#0 42888553#1 42888553#2 42888553#3 42888553#4 131655247#0 772400089 476193290#1 476193290#2 192348885 -103736815 103736811#4 103736811#1 103736811#2 26370269#0 26370269#1 -272723394"/>
    </vehicle>
    <vehicle id="78" depart="78.00">
        <route edges="-52349261#1 -52349261#0 -95807620#1 -95807620#0 196190054 196190031 196190052 196190029 196190046#0"/>
    </vehicle>
    <vehicle id="79" depart="79.00">
        <route edges="-26370274 26370273#1 26370273#2 26370273#3 131655426#11 306865642#1 306865642#2 306865642#4 306865642#5 306865642#6 306865642#7 306865642#8 306865642#9 306865642#10 306865642#11 306865642#12 422986456#0 772400089 476193290#1 476193290#2 192348885 -103736815 103736811#4 103736811#1 103736811#2 26370269#0 26370269#1 26370269#2 26370269#3 26370270#1 -272723392#0"/>
    </vehicle>
    <vehicle id="80" depart="80.00">
        <route edges="-131838565#13 -131838565#12 -131838565#11 -131838565#10 -131838565#9 -131838565#8 -131838565#7 -131838565#5 -131838565#4 -131838565#3 -131838565#2 -131838565#1 -131838565#0 196190046#0 196190046#1 22803388 196190054 196190031 24402205 42888553#0 42888553#1 42888553#2 42888553#3 42888553#4 -306865642#14 -306865642#12 -306865642#11 -306865642#10 -306865642#9 -306865642#8 -306865642#7 -306865642#6 -306865642#5 -306865642#4 -306865642#2 -306865642#1 -306865643#0 -26370273#3 -26370273#2 -26370271#4 -26370271#3 -103736814#2 -103736814#1 26370271#0 26370271#1 26370271#2 26370271#3 26370271#4 26370273#2 26370273#3 131655426#11 306865642#1 306865642#2 306865642#4 306865642#5 306865642#6 306865642#7 306865642#8 306865642#9 306865642#10 306865642#11 306865642#12 306865642#14 8232907 601761836 601761837#0 601761837#1 24001181 -24394258 24394257#1"/>
    </vehicle>
    <vehicle id="81" depart="81.00">
        <route edges="-26370274 26370273#1 26370273#2 26370273#3 131655426#11 306865642#1 306865642#2 306865642#4 306865642#5 306865642#6 306865642#7 306865642#8 306865642#9 306865642#10 306865642#11 306865642#12 306865642#14 8232907 601761836 601761837#0 601761837#1"/>
    </vehicle>
    <vehicle id="82" depart="82.00">
        <route edges="42888553#1 42888553#2 42888553#3 42888553#4 -306865642#14 -306865642#12 -306865642#11 -306865642#10 -306865642#9 -306865642#8 -306865642#7 -306865642#6 -306865642#5 -306865642#4 -306865642#2 -306865642#1 -306865643#0 -26370273#3 -26370273#2 -26370271#4 -26370271#3 -103736814#2 -103736814#1 26370271#0 26370271#1 26370271#2 26370271#3 26370271#4 26370273#2 26370273#3 131655426#11 306865642#1 306865642#2 306865642#4 306865642#5 306865642#6 306865642#7 306865642#8 306865642#9 306865642#10 306865642#11 306865642#12 306865642#14 -42888553#4 -42888553#3 -42888553#2 -42888553#1 -42888553#0 34574016 196190029 131838565#0 131838565#1 131838565#2 95807621#0 -24394260 -131838565#3"/>
    </vehicle>
    <vehicle id="85" depart="85.00">
        <route edges="95807614 95807636#1 95807636#2 24394263#1 24394263#2 -131838565#9 -131838565#8 -131838565#7 -131838565#5 95807633#0 95807633#1 186533894#0 186533894#1"/>
    </vehicle>
    <vehicle id="86" depart="86.00">
        <route edges="115782334#0 115782323#0 81139324#1 81139324#2 -26370278#2 -26370278#1 -26370278#0 131655426#6 131655426#7 131655426#8 131655426#9 -26370273#3 -26370273#2 -26370273#1 26370274"/>
    </vehicle>
    <vehicle id="88" depart="88.00">
        <route edges="-131838566#4 -131838566#3 -131838566#2 -131838566#0 196190031 196190052 196190029 196190046#0 196190046#1 22803388 95807620#0 95807620#1 95807620#2 95807620#3 95807620#4 101087993#0"/>
    </vehicle>
    <vehicle id="89" depart="89.00">
        <route edges="-95897169#2 -95897169#0 -95897174#0 245232789#0 245232789#1 245232797#5 245232812 245232807#2 245232807#3 245232807#4 245232807#5 245232807#6 245232807#7 22803388 196190054 196190031 24402205 42888553#0 42888553#1 42888553#2 42888553#3 42888553#4 -306865642#14 -306865642#12 -306865642#11 -306865642#10 -306865642#9 -306865642#8 -306865642#7 -306865642#6 -306865642#5 -306865642#4 -306865642#2 115782338"/>
    </vehicle>
    <vehicle id="90" depart="90.00">
        <route edges="245232811 245232801 503869257#1 245232795#0"/>
    </vehicle>
    <vehicle id="92" depart="92.00">
        <route edges="-95807621#1 -95807621#0 -131838565#2 -131838565#1 -131838565#0 196190046#0 196190046#1 22803388 196190054 131838566#0 131838566#2 131838566#3 131838566#4 131838566#5 131838566#6 131838566#7 306596442#1 306596445#0 -803436833#5 -803436833#4 -803436833#3 -803436833#2"/>
    </vehicle>
    <vehicle id="95" depart="95.00">
        <route edges="-95897169#2 -95897169#0 -95897174#0 245232789#0 245232789#1 245232797#5 245232812 245232807#2 245232807#3 245232807#4 245232807#5 245232807#6 245232807#7 22803388 196190054 196190031 24402205 42888553#0 42888553#1 42888553#2 42888553#3 42888553#4 -306865642#14 -306865642#12 -306865642#11 -306865642#10 -306865642#9 -306865642#8"/>
    </vehicle>
    <vehicle id="96" depart="96.00">
        <route edges="-306596442#0 -131838566#6 -131838566#5 -131838566#4 -131838566#3 -131838566#2 -131838566#0 196190031 24402205 42888553#0 42888553#1 42888553#2 42888553#3 42888553#4 -306865642#14 -306865642#12 -306865642#11 -306865642#10 -306865642#9 -306865642#8 -306865642#7 -306865642#6 -306865642#5 -306865642#4 -306865642#2 -306865642#1 -306865643#0 -26370273#3 -26370273#2 -26370271#4 -26370271#3 -103736814#2 -103736814#1 26370271#0 26370271#1 26370271#2 26370271#3 26370271#4 26370273#2 26370273#3 131655426#11 306865642#1 306865642#2 306865642#4 306865642#5 306865642#6 306865642#7 306865642#8 306865642#9 306865642#10 306865642#11 306865642#12 306865642#14 8232907 601761836 601761837#0 601761837#1 28051329 202855533#0 202855533#1 808865749#0"/>
    </vehicle>
    <vehicle id="97" depart="97.00">
        <route edges="101087991#0 -101087993#1 -101087993#0 -95807620#4 -95807620#3 -95807620#2 -95807620#1 -95807620#0 196190054 196190031 24402205 42888553#0 42888553#1 42888553#2 42888553#3 42888553#4 -306865642#14 422986456#0"/>
    </vehicle>
    <vehicle id="99" depart="99.00">
        <route edges="95897179 -95897169#3 -95897169#2 -95897169#0 -95897174#0 245232789#0 245232789#1 245232797#5 245232812 245232807#2 245232807#3 245232807#4 245232807#5 245232807#6 245232807#7 22803388 196190054 196190031 24402205 42888553#0 42888553#1 42888553#2 42888553#3 42888553#4 -306865642#14 -306865642#12 -306865642#11 -306865642#10 -306865642#9 -306865642#8 -306865642#7 -306865642#6 -306865642#5 -306865642#4 -306865642#2 -306865642#1 -306865643#0 -26370273#3 -26370273#2 -26370271#4 -26370271#3 -103736814#2 -103736814#1 26370271#0 26370271#1 26370271#2 26370271#3 26370271#4 26370273#2 26370273#3 131655426#11 306865642#1 306865642#2 306865642#4"/>
    </vehicle>
    <vehicle id="100" depart="100.00">
        <route edges="95807636#1 95807636#2 24394263#1 24394263#2 -131838565#9 -131838565#8 -131838565#7 -131838565#5 -131838565#4 -131838565#3 -131838565#2 -131838565#1 -131838565#0 196190046#0 196190046#1 22803388 196190054 196190031 24402205 42888553#0 42888553#1 42888553#2 42888553#3 42888553#4 -306865642#14 -306865642#12 -306865642#11 -306865642#10 -306865642#9 -306865642#8 -306865642#7 -306865642#6 -306865642#5 -306865642#4 -306865642#2 -306865642#1 -306865643#0 -26370273#3 -26370273#2 -26370271#4 -26370271#3 -103736814#2 -103736814#1 26370271#0 26370271#1 26370271#2 26370271#3 26370271#4 26370273#2 26370273#3 131655426#11 306865642#1 306865642#2 306865642#4 306865642#5 306865642#6 306865642#7 306865642#8 306865642#9 306865642#10 306865642#11 306865642#12 306865642#14 8232907 601761836 601761837#0 601761837#1 28051329 202855533#0 202855533#1 808865749#0 808865749#1"/>
    </vehicle>
    <vehicle id="102" depart="102.00">
        <route edges="131655426#4 131655426#5 26370278#0 26370278#1 26370278#2 -81139324#2 -81139324#1 -115782323#0 115782334#1 81139324#0 81139324#1 81139324#2 -26370278#2"/>
    </vehicle>
    <vehicle id="103" depart="103.00">
        <route edges="-95807621#0 -131838565#2 -131838565#1"/>
    </vehicle>
    <vehicle id="104" depart="104.00">
        <route edges="-81139324#3 -26370278#2 -26370278#1 -26370278#0 131655426#6 131655426#7 131655426#8 131655426#9 131655426#11 306865642#1 306865642#2 306865642#4 306865642#5 306865642#6 306865642#7 306865642#8 306865642#9 306865642#10 306865642#11 306865642#12 306865642#14 -42888553#4 -42888553#3 -42888553#2 -42888553#1 -42888553#0 34574016 196190029 196190046#0 245232806#0 245232806#1 245232806#2 245232806#3 245232806#4 245232806#5 245232806#6 245232827 245232801 245232788 95897174#0 95897169#0 95897169#2 95897169#3 95897169#4"/>
    </vehicle>
    <vehicle id="105" depart="105.00">
        <route edges="-306865638#3 -306865638#2 -306865638#1 -306865638#0 -589913464#0 -306446499 -476193290#2 -476193290#1 -476193290#0 -131655247#0 -42888553#4 -42888553#3 -42888553#2 -42888553#1 -42888553#0 34574016 196190029 196190046#0 196190046#1 22803388 196190054 196190031 24402205 42888553#0 42888553#1 42888553#2 42888553#3 42888553#4 -306865642#14 -306865642#12 -306865642#11 -306865642#10 -306865642#9 -306865642#8 -306865642#7 -306865642#6 -306865642#5 -306865642#4 -306865642#2 -306865642#1 -306865643#0 -26370273#3 -26370273#2 -26370271#4 -26370271#3 -103736814#2 -103736814#1 26370271#0 26370271#1 26370271#2 26370271#3 26370271#4 26370273#2 26370273#3"/>
    </vehicle>
    <vehicle id="107" depart="107.00">
        <route edges="95807621#1 -95807633#1 -95807633#0 -131838565#4 -131838565#3 -131838565#2 -131838565#1 -131838565#0 196190046#0 245232806#0 245232806#1 245232806#2 245232806#3 245232806#4 245232806#5 245232806#6 245232827 245232801 245232788 95897174#0 95897174#1"/>
    </vehicle>
    <vehicle id="108" depart="108.00">