<?xml version="1.0" encoding="UTF-8"?>

<!-- generated on 03/05/21 16:26:15 by Eclipse SUMO netedit Version 1.7.0
<configuration xmlns:xsi="http://www.w3.org/2001/XMLSchema-instance" xsi:noNamespaceSchemaLocation="http://sumo.dlr.de/xsd/netconvertConfiguration.xsd">

    <input>
        <sumo-net-file value="C:\Users\Caolan\Desktop\Final%20Year%20Project\Simulations\Sim1\MonCross\monnet.net.xml"/>
    </input>

    <output>
        <output-file value="C:\Users\Caolan\Desktop\Final%20Year%20Project\Simulations\Sim1\MonCross\monnet.net.xml"/>
    </output>

    <processing>
        <geometry.min-radius.fix.railways value="false"/>
        <geometry.max-grade.fix value="false"/>
        <offset.disable-normalization value="true"/>
        <lefthand value="true"/>
    </processing>

    <junctions>
        <no-turnarounds value="true"/>
        <no-turnarounds.geometry value="false"/>
        <no-turnarounds.except-turnlane value="true"/>
        <junctions.corner-detail value="5"/>
        <junctions.limit-turn-speed value="5.5"/>
        <rectangular-lane-cut value="false"/>
    </junctions>

    <pedestrian>
        <walkingareas value="false"/>
    </pedestrian>

    <report>
        <aggregate-warnings value="5"/>
    </report>

</configuration>
-->

<net version="1.6" junctionCornerDetail="5" lefthand="true" limitTurnSpeed="5.50" xmlns:xsi="http://www.w3.org/2001/XMLSchema-instance" xsi:noNamespaceSchemaLocation="http://sumo.dlr.de/xsd/net_file.xsd">

    <location netOffset="-496365.25,-5902677.99" convBoundary="6.91,0.00,2223.83,1509.91" origBoundary="-9.054518,53.273332,-9.018482,53.287098" projParameter="+proj=utm +zone=29 +ellps=WGS84 +datum=WGS84 +units=m +no_defs"/>

    <type id="highway.bridleway" priority="1" numLanes="1" speed="2.78" allow="pedestrian" oneway="1" width="2.00"/>
    <type id="highway.bus_guideway" priority="1" numLanes="1" speed="27.78" allow="bus" oneway="1"/>
    <type id="highway.cycleway" priority="1" numLanes="1" speed="8.33" allow="bicycle" oneway="0" width="1.00"/>
    <type id="highway.footway" priority="1" numLanes="1" speed="2.78" allow="pedestrian" oneway="1" width="2.00"/>
    <type id="highway.ford" priority="1" numLanes="1" speed="2.78" allow="army" oneway="0"/>
    <type id="highway.living_street" priority="2" numLanes="1" speed="2.78" disallow="tram rail_urban rail rail_electric rail_fast ship" oneway="0"/>
    <type id="highway.motorway" priority="14" numLanes="2" speed="39.44" allow="private emergency authority army vip passenger hov taxi bus coach delivery truck trailer motorcycle evehicle custom1 custom2" oneway="1"/>
    <type id="highway.motorway_link" priority="9" numLanes="1" speed="22.22" allow="private emergency authority army vip passenger hov taxi bus coach delivery truck trailer motorcycle evehicle custom1 custom2" oneway="1"/>
    <type id="highway.path" priority="1" numLanes="1" speed="2.78" allow="pedestrian bicycle" oneway="1" width="2.00"/>
    <type id="highway.pedestrian" priority="1" numLanes="1" speed="2.78" allow="pedestrian" oneway="1" width="2.00"/>
    <type id="highway.primary" priority="12" numLanes="2" speed="27.78" disallow="tram rail_urban rail rail_electric rail_fast ship" oneway="0"/>
    <type id="highway.primary_link" priority="7" numLanes="1" speed="22.22" disallow="tram rail_urban rail rail_electric rail_fast ship" oneway="0"/>
    <type id="highway.raceway" priority="15" numLanes="2" speed="83.33" allow="vip" oneway="0"/>
    <type id="highway.residential" priority="3" numLanes="1" speed="13.89" disallow="tram rail_urban rail rail_electric rail_fast ship" oneway="0"/>
    <type id="highway.secondary" priority="11" numLanes="1" speed="27.78" disallow="tram rail_urban rail rail_electric rail_fast ship" oneway="0"/>
    <type id="highway.secondary_link" priority="6" numLanes="1" speed="22.22" disallow="tram rail_urban rail rail_electric rail_fast ship" oneway="0"/>
    <type id="highway.service" priority="1" numLanes="1" speed="5.56" allow="pedestrian delivery bicycle" oneway="0"/>
    <type id="highway.stairs" priority="1" numLanes="1" speed="1.39" allow="pedestrian" oneway="1" width="2.00"/>
    <type id="highway.step" priority="1" numLanes="1" speed="1.39" allow="pedestrian" oneway="1" width="2.00"/>
    <type id="highway.steps" priority="1" numLanes="1" speed="1.39" allow="pedestrian" oneway="1" width="2.00"/>
    <type id="highway.tertiary" priority="10" numLanes="1" speed="22.22" disallow="tram rail_urban rail rail_electric rail_fast ship" oneway="0"/>
    <type id="highway.tertiary_link" priority="5" numLanes="1" speed="22.22" disallow="tram rail_urban rail rail_electric rail_fast ship" oneway="0"/>
    <type id="highway.track" priority="1" numLanes="1" speed="5.56" allow="pedestrian motorcycle moped bicycle" oneway="0"/>
    <type id="highway.trunk" priority="13" numLanes="2" speed="27.78" disallow="pedestrian bicycle tram rail_urban rail rail_electric rail_fast ship" oneway="0"/>
    <type id="highway.trunk_link" priority="8" numLanes="1" speed="22.22" disallow="pedestrian bicycle tram rail_urban rail rail_electric rail_fast ship" oneway="0"/>
    <type id="highway.unclassified" priority="4" numLanes="1" speed="13.89" disallow="tram rail_urban rail rail_electric rail_fast ship" oneway="0"/>
    <type id="highway.unsurfaced" priority="1" numLanes="1" speed="8.33" disallow="tram rail_urban rail rail_electric rail_fast ship" oneway="0"/>
    <type id="railway.highspeed" priority="21" numLanes="1" speed="69.44" allow="rail_fast" oneway="1"/>
    <type id="railway.light_rail" priority="19" numLanes="1" speed="27.78" allow="rail_urban" oneway="1"/>
    <type id="railway.preserved" priority="16" numLanes="1" speed="27.78" allow="rail" oneway="1"/>
    <type id="railway.rail" priority="20" numLanes="1" speed="44.44" allow="rail" oneway="1"/>
    <type id="railway.subway" priority="18" numLanes="1" speed="27.78" allow="rail_urban" oneway="1"/>
    <type id="railway.tram" priority="17" numLanes="1" speed="13.89" allow="tram" oneway="1"/>

    <edge id=":1110397084_0" function="internal">
        <lane id=":1110397084_0_0" index="0" disallow="tram rail_urban rail rail_electric rail_fast ship" speed="9.37" length="9.82" shape="1093.20,1016.36 1094.41,1014.49 1096.12,1012.97 1098.32,1011.80 1101.01,1010.97"/>
    </edge>
    <edge id=":1110397084_1" function="internal">
        <lane id=":1110397084_1_0" index="0" disallow="tram rail_urban rail rail_electric rail_fast ship" speed="6.71" length="7.99" shape="1089.38,1007.70 1090.63,1009.10 1091.21,1010.78 1091.10,1012.74 1090.31,1014.99"/>
    </edge>
    <edge id=":1110397084_2" function="internal">
        <lane id=":1110397084_2_0" index="0" disallow="tram rail_urban rail rail_electric rail_fast ship" speed="10.69" length="11.99" shape="1089.38,1007.70 1092.28,1009.62 1095.18,1010.81 1098.09,1011.26 1101.01,1010.97"/>
        <lane id=":1110397084_2_1" index="1" disallow="tram rail_urban rail rail_electric rail_fast ship" speed="10.27" length="11.99" shape="1090.91,1004.83 1093.47,1006.50 1096.13,1007.50 1098.86,1007.85 1101.68,1007.55"/>
    </edge>
    <edge id=":1110397186_0" function="internal">
        <lane id=":1110397186_0_0" index="0" disallow="tram rail_urban rail rail_electric rail_fast ship" speed="13.89" length="0.22" shape="502.18,643.39 502.05,643.21"/>
    </edge>
    <edge id=":1110397186_1" function="internal">
        <lane id=":1110397186_1_0" index="0" disallow="tram rail_urban rail rail_electric rail_fast ship" speed="13.89" length="0.31" shape="499.49,645.14 499.68,645.38"/>
    </edge>
    <edge id=":1110397213_0" function="internal">
        <lane id=":1110397213_0_0" index="0" disallow="tram rail_urban rail rail_electric rail_fast ship" speed="6.61" length="9.06" shape="690.92,893.92 688.68,895.01 686.62,895.15 684.73,894.35 683.02,892.60"/>
    </edge>
    <edge id=":1110397213_1" function="internal">
        <lane id=":1110397213_1_0" index="0" disallow="tram rail_urban rail rail_electric rail_fast ship" speed="8.00" length="14.11" shape="690.92,893.92 688.05,896.51 686.69,899.39 686.83,902.58 688.48,906.08"/>
    </edge>
    <edge id=":1110397213_2" function="internal">
        <lane id=":1110397213_2_0" index="0" disallow="tram rail_urban rail rail_electric rail_fast ship" speed="6.51" length="8.98" shape="691.15,904.31 690.10,902.09 690.01,900.06 690.88,898.22 692.71,896.58"/>
    </edge>
    <edge id=":1110397213_3" function="internal">
        <lane id=":1110397213_3_0" index="0" disallow="tram rail_urban rail rail_electric rail_fast ship" speed="13.89" length="14.26" shape="691.15,904.31 683.02,892.60"/>
    </edge>
    <edge id=":1110397213_4" function="internal">
        <lane id=":1110397213_4_0" index="0" disallow="tram rail_urban rail rail_electric rail_fast ship" speed="13.89" length="14.10" shape="680.43,894.49 688.48,906.08"/>
    </edge>
    <edge id=":1110397213_5" function="internal">
        <lane id=":1110397213_5_0" index="0" disallow="tram rail_urban rail rail_electric rail_fast ship" speed="8.09" length="5.63" shape="680.43,894.49 683.10,897.22 684.77,897.93"/>
    </edge>
    <edge id=":1110397213_6" function="internal">
        <lane id=":1110397213_6_0" index="0" disallow="tram rail_urban rail rail_electric rail_fast ship" speed="8.09" length="8.44" shape="684.77,897.93 686.03,898.47 689.23,898.26 692.71,896.58"/>
    </edge>
    <edge id=":1110397305_0" function="internal">
        <lane id=":1110397305_0_0" index="0" disallow="tram rail_urban rail rail_electric rail_fast ship" speed="3.65" length="4.67" shape="486.18,622.18 484.82,621.70 483.94,621.86 483.54,622.66 483.62,624.10"/>
    </edge>
    <edge id=":1110397308_0" function="internal">
        <lane id=":1110397308_0_0" index="0" disallow="tram rail_urban rail rail_electric rail_fast ship" speed="13.89" length="0.31" shape="713.40,807.75 713.14,807.92"/>
    </edge>
    <edge id=":1110397308_1" function="internal">
        <lane id=":1110397308_1_0" index="0" disallow="tram rail_urban rail rail_electric rail_fast ship" speed="13.89" length="0.28" shape="714.94,810.57 715.17,810.41"/>
    </edge>
    <edge id=":1110397474_0" function="internal">
        <lane id=":1110397474_0_0" index="0" disallow="tram rail_urban rail rail_electric rail_fast ship" speed="13.89" length="0.10" shape="529.37,677.54 529.37,677.54"/>
    </edge>
    <edge id=":1110397474_1" function="internal">
        <lane id=":1110397474_1_0" index="0" disallow="tram rail_urban rail rail_electric rail_fast ship" speed="13.89" length="0.10" shape="526.87,679.54 526.87,679.54"/>
    </edge>
    <edge id=":1110397541_0" function="internal">
        <lane id=":1110397541_0_0" index="0" disallow="tram rail_urban rail rail_electric rail_fast ship" speed="6.67" length="9.35" shape="570.03,719.73 567.86,720.90 565.78,721.07 563.79,720.24 561.89,718.41"/>
    </edge>
    <edge id=":1110397541_1" function="internal">
        <lane id=":1110397541_1_0" index="0" disallow="tram rail_urban rail rail_electric rail_fast ship" speed="13.89" length="14.51" shape="570.03,719.73 558.16,728.06"/>
    </edge>
    <edge id=":1110397541_2" function="internal">
        <lane id=":1110397541_2_0" index="0" disallow="tram rail_urban rail rail_electric rail_fast ship" speed="13.89" length="14.71" shape="559.91,730.74 571.96,722.28"/>
    </edge>
    <edge id=":1110397541_3" function="internal">
        <lane id=":1110397541_3_0" index="0" disallow="tram rail_urban rail rail_electric rail_fast ship" speed="7.85" length="6.30" shape="559.91,730.74 562.94,728.06 563.87,726.00"/>
    </edge>
    <edge id=":1110397541_6" function="internal">
        <lane id=":1110397541_6_0" index="0" disallow="tram rail_urban rail rail_electric rail_fast ship" speed="7.85" length="8.25" shape="563.87,726.00 564.28,725.11 563.93,721.90 561.89,718.41"/>
    </edge>
    <edge id=":1110397541_4" function="internal">
        <lane id=":1110397541_4_0" index="0" disallow="tram rail_urban rail rail_electric rail_fast ship" speed="6.32" length="9.04" shape="559.38,720.40 560.65,722.57 560.87,724.57 560.04,726.40 558.16,728.06"/>
    </edge>
    <edge id=":1110397541_5" function="internal">
        <lane id=":1110397541_5_0" index="0" disallow="tram rail_urban rail rail_electric rail_fast ship" speed="8.14" length="14.41" shape="559.38,720.40 562.29,723.18 565.35,724.42 568.57,724.12 571.96,722.28"/>
    </edge>
    <edge id=":1111150129_0" function="internal">
        <lane id=":1111150129_0_0" index="0" disallow="tram rail_urban rail rail_electric rail_fast ship" speed="3.65" length="4.67" shape="125.29,1230.58 126.67,1231.03 127.54,1230.85 127.92,1230.04 127.81,1228.60"/>
    </edge>
    <edge id=":1111150142_0" function="internal">
        <lane id=":1111150142_0_0" index="0" disallow="tram rail_urban rail rail_electric rail_fast ship" speed="11.11" length="0.29" shape="461.13,1162.19 461.05,1162.23 461.00,1162.25 460.94,1162.27 460.86,1162.31"/>
    </edge>
    <edge id=":1111150142_1" function="internal">
        <lane id=":1111150142_1_0" index="0" disallow="tram rail_urban rail rail_electric rail_fast ship" speed="11.11" length="0.18" shape="462.53,1165.04 462.67,1164.94"/>
    </edge>
    <edge id=":1111150209_0" function="internal">
        <lane id=":1111150209_0_0" index="0" disallow="tram rail_urban rail rail_electric rail_fast ship" speed="13.89" length="0.15" shape="377.70,1191.01 377.55,1191.01"/>
    </edge>
    <edge id=":1111150209_1" function="internal">
        <lane id=":1111150209_1_0" index="0" disallow="tram rail_urban rail rail_electric rail_fast ship" speed="13.89" length="0.28" shape="377.61,1194.21 377.89,1194.20"/>
    </edge>
    <edge id=":1167171523_0" function="internal">
        <lane id=":1167171523_0_0" index="0" disallow="tram rail_urban rail rail_electric rail_fast ship" speed="13.89" length="0.10" shape="787.95,1247.90 787.99,1247.98"/>
    </edge>
    <edge id=":1167171523_1" function="internal">
        <lane id=":1167171523_1_0" index="0" disallow="tram rail_urban rail rail_electric rail_fast ship" speed="13.89" length="0.10" shape="785.07,1249.28 785.11,1249.36"/>
    </edge>
    <edge id=":1167171536_0" function="internal">
        <lane id=":1167171536_0_0" index="0" disallow="tram rail_urban rail rail_electric rail_fast ship" speed="3.65" length="4.67" shape="676.19,1122.91 675.24,1124.00 675.07,1124.87 675.67,1125.54 677.03,1125.99"/>
    </edge>
    <edge id=":1167171538_0" function="internal">
        <lane id=":1167171538_0_0" index="0" disallow="tram rail_urban rail rail_electric rail_fast ship" speed="6.20" length="9.05" shape="799.96,1260.19 797.64,1261.23 795.65,1261.20 793.99,1260.10 792.66,1257.94"/>
    </edge>
    <edge id=":1167171538_1" function="internal">
        <lane id=":1167171538_1_0" index="0" disallow="tram rail_urban rail rail_electric rail_fast ship" speed="13.89" length="14.32" shape="799.96,1260.19 796.90,1262.17 794.01,1264.17 791.20,1266.28 788.37,1268.58"/>
    </edge>
    <edge id=":1167171538_2" function="internal">
        <lane id=":1167171538_2_0" index="0" disallow="tram rail_urban rail rail_electric rail_fast ship" speed="13.89" length="13.87" shape="790.44,1271.02 793.21,1268.76 795.90,1266.75 798.67,1264.84 801.67,1262.89"/>
    </edge>
    <edge id=":1167171538_3" function="internal">
        <lane id=":1167171538_3_0" index="0" disallow="tram rail_urban rail rail_electric rail_fast ship" speed="9.06" length="5.36" shape="790.44,1271.02 792.74,1268.37 793.38,1266.64"/>
    </edge>
    <edge id=":1167171538_6" function="internal">
        <lane id=":1167171538_6_0" index="0" disallow="tram rail_urban rail rail_electric rail_fast ship" speed="9.06" length="8.97" shape="793.38,1266.64 793.88,1265.31 793.85,1261.83 792.66,1257.94"/>
    </edge>
    <edge id=":1167171538_4" function="internal">
        <lane id=":1167171538_4_0" index="0" disallow="tram rail_urban rail rail_electric rail_fast ship" speed="7.73" length="10.21" shape="789.73,1259.21 790.62,1262.05 790.69,1264.56 789.94,1266.73 788.37,1268.58"/>
    </edge>
    <edge id=":1167171538_5" function="internal">
        <lane id=":1167171538_5_0" index="0" disallow="tram rail_urban rail rail_electric rail_fast ship" speed="7.75" length="14.82" shape="789.73,1259.21 791.91,1262.75 794.62,1264.54 797.88,1264.59 801.67,1262.89"/>
    </edge>
    <edge id=":1167171555_0" function="internal">
        <lane id=":1167171555_0_0" index="0" disallow="tram rail_urban rail rail_electric rail_fast ship" speed="3.65" length="4.67" shape="734.36,1093.44 733.16,1092.65 732.26,1092.60 731.68,1093.28 731.42,1094.70"/>
    </edge>
    <edge id=":1167171580_0" function="internal">
        <lane id=":1167171580_0_0" index="0" disallow="tram rail_urban rail rail_electric rail_fast ship" speed="13.89" length="14.25" shape="701.42,1115.72 687.74,1119.72"/>
    </edge>
    <edge id=":1167171580_1" function="internal">
        <lane id=":1167171580_1_0" index="0" disallow="tram rail_urban rail rail_electric rail_fast ship" speed="7.66" length="6.39" shape="701.42,1115.72 697.35,1117.56 696.03,1118.96"/>
    </edge>
    <edge id=":1167171580_6" function="internal">
        <lane id=":1167171580_6_0" index="0" disallow="tram rail_urban rail rail_electric rail_fast ship" speed="7.66" length="8.37" shape="696.03,1118.96 695.05,1120.00 694.50,1123.05 695.72,1126.69"/>
    </edge>
    <edge id=":1167171580_2" function="internal">
        <lane id=":1167171580_2_0" index="0" disallow="tram rail_urban rail rail_electric rail_fast ship" speed="6.28" length="9.52" shape="698.95,1125.96 698.12,1123.54 698.41,1121.54 699.83,1119.95 702.37,1118.77"/>
    </edge>
    <edge id=":1167171580_3" function="internal">
        <lane id=":1167171580_3_0" index="0" disallow="tram rail_urban rail rail_electric rail_fast ship" speed="8.66" length="13.99" shape="698.95,1125.96 696.63,1122.52 693.99,1120.33 691.03,1119.40 687.74,1119.72"/>
    </edge>
    <edge id=":1167171580_4" function="internal">
        <lane id=":1167171580_4_0" index="0" disallow="tram rail_urban rail rail_electric rail_fast ship" speed="7.01" length="8.85" shape="688.59,1122.81 690.69,1122.60 692.58,1123.17 694.26,1124.54 695.72,1126.69"/>
    </edge>
    <edge id=":1167171580_5" function="internal">
        <lane id=":1167171580_5_0" index="0" disallow="tram rail_urban rail rail_electric rail_fast ship" speed="13.89" length="14.36" shape="688.59,1122.81 702.37,1118.77"/>
    </edge>
    <edge id=":1167173810_0" function="internal">
        <lane id=":1167173810_0_0" index="0" disallow="tram rail_urban rail rail_electric rail_fast ship" speed="13.89" length="0.31" shape="1259.27,1151.47 1259.08,1151.22"/>
    </edge>
    <edge id=":1167173810_1" function="internal">
        <lane id=":1167173810_1_0" index="0" disallow="tram rail_urban rail rail_electric rail_fast ship" speed="13.89" length="0.27" shape="1256.58,1153.21 1256.74,1153.42"/>
    </edge>
    <edge id=":1449675116_0" function="internal">
        <lane id=":1449675116_0_0" index="0" disallow="tram rail_urban rail rail_electric rail_fast ship" speed="3.65" length="4.67" shape="1809.26,293.93 1807.94,293.36 1807.05,293.46 1806.60,294.23 1806.58,295.67"/>
    </edge>
    <edge id=":1508910621_0" function="internal">
        <lane id=":1508910621_0_0" index="0" disallow="tram rail_urban rail rail_electric rail_fast ship" speed="13.89" length="0.18" shape="453.90,543.62 453.77,543.73"/>
    </edge>
    <edge id=":1508910621_1" function="internal">
        <lane id=":1508910621_1_0" index="0" disallow="tram rail_urban rail rail_electric rail_fast ship" speed="13.89" length="0.29" shape="455.73,546.26 455.96,546.07"/>
    </edge>
    <edge id=":1508910628_0" function="internal">
        <lane id=":1508910628_0_0" index="0" disallow="tram rail_urban rail rail_electric rail_fast ship" speed="13.89" length="0.30" shape="434.71,558.52 434.47,558.71"/>
    </edge>
    <edge id=":1508910628_1" function="internal">
        <lane id=":1508910628_1_0" index="0" disallow="tram rail_urban rail rail_electric rail_fast ship" speed="13.89" length="0.20" shape="436.52,561.17 436.67,561.05"/>
    </edge>
    <edge id=":1544954203_0" function="internal">
        <lane id=":1544954203_0_0" index="0" disallow="tram rail_urban rail rail_electric rail_fast ship" speed="8.33" length="14.66" shape="1999.72,655.44 1997.09,641.01"/>
    </edge>
    <edge id=":1544954203_1" function="internal">
        <lane id=":1544954203_1_0" index="0" disallow="tram rail_urban rail rail_electric rail_fast ship" speed="7.58" length="15.42" shape="1999.72,655.44 1998.32,651.25 1995.98,648.93 1992.72,648.48 1988.54,649.90"/>
    </edge>
    <edge id=":1544954203_2" function="internal">
        <lane id=":1544954203_2_0" index="0" disallow="tram rail_urban rail rail_electric rail_fast ship" speed="5.97" length="9.08" shape="1989.99,652.76 1992.45,651.92 1994.37,652.18 1995.75,653.55 1996.58,656.02"/>
    </edge>
    <edge id=":1544954203_3" function="internal">
        <lane id=":1544954203_3_0" index="0" disallow="tram rail_urban rail rail_electric rail_fast ship" speed="8.33" length="14.81" shape="1989.99,652.76 1993.60,650.41 1995.99,647.68 1997.15,644.54 1997.09,641.01"/>
    </edge>
    <edge id=":1544954203_4" function="internal">
        <lane id=":1544954203_4_0" index="0" disallow="tram rail_urban rail rail_electric rail_fast ship" speed="7.88" length="10.68" shape="1993.94,641.58 1993.95,644.02 1993.05,646.22 1991.25,648.18 1988.54,649.90"/>
    </edge>
    <edge id=":1544954203_5" function="internal">
        <lane id=":1544954203_5_0" index="0" disallow="tram rail_urban rail rail_electric rail_fast ship" speed="8.33" length="14.67" shape="1993.94,641.58 1996.58,656.02"/>
    </edge>
    <edge id=":1544954207_0" function="internal">
        <lane id=":1544954207_0_0" index="0" disallow="tram rail_urban rail rail_electric rail_fast ship" speed="3.65" length="4.67" shape="1974.53,657.01 1973.82,658.27 1973.82,659.16 1974.54,659.70 1975.97,659.87"/>
    </edge>
    <edge id=":1636633964_0" function="internal">
        <lane id=":1636633964_0_0" index="0" disallow="tram rail_urban rail rail_electric rail_fast ship" speed="13.89" length="0.10" shape="1234.22,711.78 1234.17,711.70"/>
    </edge>
    <edge id=":1636633964_1" function="internal">
        <lane id=":1636633964_1_0" index="0" disallow="tram rail_urban rail rail_electric rail_fast ship" speed="13.89" length="0.10" shape="1231.57,713.56 1231.52,713.48"/>
    </edge>
    <edge id=":1636634100_0" function="internal">
        <lane id=":1636634100_0_0" index="0" disallow="tram rail_urban rail rail_electric rail_fast ship" speed="12.09" length="9.65" shape="1249.75,770.48 1246.88,770.34 1244.84,770.16 1243.01,769.48 1240.78,767.82"/>
    </edge>
    <edge id=":1636634100_1" function="internal">
        <lane id=":1636634100_1_0" index="0" disallow="tram rail_urban rail rail_electric rail_fast ship" speed="13.89" length="9.52" shape="1247.92,774.12 1240.78,767.82"/>
    </edge>
    <edge id=":1636634100_2" function="internal">
        <lane id=":1636634100_2_0" index="0" disallow="tram rail_urban rail rail_electric rail_fast ship" speed="13.89" length="9.51" shape="1238.67,770.23 1245.80,776.52"/>
    </edge>
    <edge id=":1636634202_0" function="internal">
        <lane id=":1636634202_0_0" index="0" disallow="tram rail_urban rail rail_electric rail_fast ship" speed="3.90" length="2.74" shape="351.94,780.76 351.25,781.08 350.85,781.53 350.73,782.13 350.90,782.87"/>
    </edge>
    <edge id=":1636634570_0" function="internal">
        <lane id=":1636634570_0_0" index="0" disallow="tram rail_urban rail rail_electric rail_fast ship" speed="13.89" length="0.30" shape="1029.40,941.54 1029.14,941.38"/>
    </edge>
    <edge id=":1636634570_1" function="internal">
        <lane id=":1636634570_1_0" index="0" disallow="tram rail_urban rail rail_electric rail_fast ship" speed="13.89" length="0.20" shape="1027.51,944.13 1027.67,944.24"/>
    </edge>
    <edge id=":1641376588_0" function="internal">
        <lane id=":1641376588_0_0" index="0" disallow="tram rail_urban rail rail_electric rail_fast ship" speed="13.89" length="0.31" shape="703.18,664.95 702.98,664.72"/>
    </edge>
    <edge id=":1641376588_1" function="internal">
        <lane id=":1641376588_1_0" index="0" disallow="tram rail_urban rail rail_electric rail_fast ship" speed="13.89" length="0.29" shape="700.53,666.78 700.71,667.00"/>
    </edge>
    <edge id=":1641422961_0" function="internal">
        <lane id=":1641422961_0_0" index="0" disallow="tram rail_urban rail rail_electric rail_fast ship" speed="13.89" length="0.26" shape="681.70,1053.30 682.08,1053.37"/>
        <lane id=":1641422961_0_1" index="1" disallow="tram rail_urban rail rail_electric rail_fast ship" speed="13.89" length="0.26" shape="682.41,1050.18 682.53,1050.20"/>
    </edge>
    <edge id=":1641423005_0" function="internal">
        <lane id=":1641423005_0_0" index="0" disallow="tram rail_urban rail rail_electric rail_fast ship" speed="3.65" length="4.67" shape="905.82,1417.86 904.44,1418.28 903.83,1418.93 903.98,1419.81 904.90,1420.92"/>
    </edge>
    <edge id=":1654629653_0" function="internal">
        <lane id=":1654629653_0_0" index="0" disallow="tram rail_urban rail rail_electric rail_fast ship" speed="13.89" length="0.10" shape="607.75,567.23 607.75,567.23"/>
    </edge>
    <edge id=":1654629653_1" function="internal">
        <lane id=":1654629653_1_0" index="0" disallow="tram rail_urban rail rail_electric rail_fast ship" speed="13.89" length="0.10" shape="605.53,569.53 605.53,569.53"/>
    </edge>
    <edge id=":1717082152_0" function="internal">
        <lane id=":1717082152_0_0" index="0" disallow="tram rail_urban rail rail_electric rail_fast ship" speed="3.65" length="4.67" shape="2003.37,1051.07 2001.94,1050.93 2001.12,1051.30 2000.92,1052.17 2001.35,1053.55"/>
    </edge>
    <edge id=":1719534301_0" function="internal">
        <lane id=":1719534301_0_0" index="0" disallow="tram rail_urban rail rail_electric rail_fast ship" speed="13.89" length="0.30" shape="1464.81,1045.01 1464.55,1044.87"/>
    </edge>
    <edge id=":1719534301_1" function="internal">
        <lane id=":1719534301_1_0" index="0" disallow="tram rail_urban rail rail_electric rail_fast ship" speed="13.89" length="0.30" shape="1463.03,1047.69 1463.29,1047.83"/>
    </edge>
    <edge id=":1719691813_0" function="internal">
        <lane id=":1719691813_0_0" index="0" disallow="tram rail_urban rail rail_electric rail_fast ship" speed="13.89" length="0.10" shape="1023.74,544.59 1023.74,544.59"/>
    </edge>
    <edge id=":1719691813_1" function="internal">
        <lane id=":1719691813_1_0" index="0" disallow="tram rail_urban rail rail_electric rail_fast ship" speed="13.89" length="0.10" shape="1021.52,546.89 1021.52,546.89"/>
    </edge>
    <edge id=":1719691868_0" function="internal">
        <lane id=":1719691868_0_0" index="0" disallow="tram rail_urban rail rail_electric rail_fast ship" speed="13.89" length="0.10" shape="1087.74,606.67 1087.74,606.67"/>
    </edge>
    <edge id=":1719691868_1" function="internal">
        <lane id=":1719691868_1_0" index="0" disallow="tram rail_urban rail rail_electric rail_fast ship" speed="13.89" length="0.10" shape="1085.30,608.75 1085.30,608.75"/>
    </edge>
    <edge id=":1719692006_0" function="internal">
        <lane id=":1719692006_0_0" index="0" disallow="tram rail_urban rail rail_electric rail_fast ship" speed="13.89" length="0.10" shape="1164.99,697.53 1164.99,697.53"/>
    </edge>
    <edge id=":1719692006_1" function="internal">
        <lane id=":1719692006_1_0" index="0" disallow="tram rail_urban rail rail_electric rail_fast ship" speed="13.89" length="0.10" shape="1162.55,699.61 1162.55,699.61"/>
    </edge>
    <edge id=":1727130747_0" function="internal">
        <lane id=":1727130747_0_0" index="0" disallow="tram rail_urban rail rail_electric rail_fast ship" speed="13.89" length="0.10" shape="1458.01,1041.34 1458.01,1041.34"/>
    </edge>
    <edge id=":1727130747_1" function="internal">
        <lane id=":1727130747_1_0" index="0" disallow="tram rail_urban rail rail_electric rail_fast ship" speed="13.89" length="0.10" shape="1456.49,1044.16 1456.49,1044.16"/>
    </edge>
    <edge id=":1727130748_0" function="internal">
        <lane id=":1727130748_0_0" index="0" disallow="tram rail_urban rail rail_electric rail_fast ship" speed="13.89" length="0.30" shape="1461.36,1043.15 1461.10,1043.01"/>
    </edge>
    <edge id=":1727130748_1" function="internal">
        <lane id=":1727130748_1_0" index="0" disallow="tram rail_urban rail rail_electric rail_fast ship" speed="13.89" length="0.30" shape="1459.58,1045.83 1459.84,1045.97"/>
    </edge>
    <edge id=":1727130896_0" function="internal">
        <lane id=":1727130896_0_0" index="0" disallow="tram rail_urban rail rail_electric rail_fast ship" speed="13.89" length="7.71" shape="1378.07,1326.03 1372.78,1320.43"/>
    </edge>
    <edge id=":1727130896_1" function="internal">
        <lane id=":1727130896_1_0" index="0" disallow="tram rail_urban rail rail_electric rail_fast ship" speed="13.89" length="8.34" shape="1370.39,1322.57 1371.67,1324.74 1371.91,1326.62 1372.18,1328.48 1373.55,1330.56"/>
        <lane id=":1727130896_1_1" index="1" disallow="tram rail_urban rail rail_electric rail_fast ship" speed="13.89" length="8.34" shape="1370.39,1322.57 1375.81,1328.29"/>
    </edge>
    <edge id=":1728018503_0" function="internal">
        <lane id=":1728018503_0_0" index="0" disallow="tram rail_urban rail rail_electric rail_fast ship" speed="13.89" length="0.30" shape="1778.19,788.72 1777.89,788.79"/>
    </edge>
    <edge id=":1728018503_1" function="internal">
        <lane id=":1728018503_1_0" index="0" disallow="tram rail_urban rail rail_electric rail_fast ship" speed="13.89" length="0.30" shape="1779.42,795.01 1779.70,794.94"/>