<?xml version="1.0" encoding="UTF-8"?>


<additional xmlns:xsi="http://www.w3.org/2001/XMLSchema-instance" xsi:noNamespaceSchemaLocation="http://sumo.dlr.de/xsd/additional_file.xsd">
    
	<vType id="CAV4" vClass="passenger" guiShape="truck" color="0,0,1" speedDev="0.05" carFollowModel="IDM" minGap="0.5" tau="0.5" probability="0.7"/>
    <vType id="CAV2" vClass="passenger" guiShape="passenger" color="1,0,0" speedDev="0.05" carFollowModel="IDM" minGap="0.5" tau="0.8" probability="0.2"/>
    <vType id="HDC" vClass="passenger" guiShape="passenger/sedan" color="0,1,0" tau="0.01" lcStrategic="0.5" probability="0.1" />
	
	<vTypeDistribution id="PKW" vTypes="HDC CAV2 CAV4"/>
	
</additional>
<!-- guiShape -->