<?xml version="1.0" encoding="UTF-8"?>

<!-- generated on 02/26/21 17:09:41 by Eclipse SUMO netedit Version 1.7.0
<configuration xmlns:xsi="http://www.w3.org/2001/XMLSchema-instance" xsi:noNamespaceSchemaLocation="http://sumo.dlr.de/xsd/netconvertConfiguration.xsd">

    <input>
        <sumo-net-file value="C:\Users\Caolan\Desktop\Final%20Year%20Project\Simulations\Sim1\4wA\def.net.xml"/>
    </input>

    <output>
        <output-file value="C:\Users\Caolan\Desktop\Final%20Year%20Project\Simulations\Sim1\4wA\def.net.xml"/>
    </output>

    <processing>
        <geometry.min-radius.fix.railways value="false"/>
        <geometry.max-grade.fix value="false"/>
        <offset.disable-normalization value="true"/>
        <lefthand value="true"/>
    </processing>

    <junctions>
        <no-turnarounds value="true"/>
        <junctions.corner-detail value="5"/>
        <junctions.limit-turn-speed value="5.5"/>
        <rectangular-lane-cut value="false"/>
    </junctions>

    <pedestrian>
        <walkingareas value="false"/>
    </pedestrian>

    <report>
        <aggregate-warnings value="5"/>
    </report>

</configuration>
-->

<net version="1.6" junctionCornerDetail="5" lefthand="true" limitTurnSpeed="5.50" xmlns:xsi="http://www.w3.org/2001/XMLSchema-instance" xsi:noNamespaceSchemaLocation="http://sumo.dlr.de/xsd/net_file.xsd">

    <location netOffset="0.00,0.00" convBoundary="-313.39,-179.34,556.39,317.39" origBoundary="-10000000000.00,-10000000000.00,10000000000.00,10000000000.00" projParameter="!"/>

    <edge id=":gneJ4_0" function="internal">
        <lane id=":gneJ4_0_0" index="0" speed="6.51" length="9.04" shape="111.47,39.95 111.12,42.41 110.07,44.16 108.32,45.21 105.87,45.56"/>
    </edge>
    <edge id=":gneJ4_1" function="internal">
        <lane id=":gneJ4_1_0" index="0" speed="13.89" length="20.81" shape="111.47,39.95 111.47,60.76"/>
        <lane id=":gneJ4_1_1" index="1" speed="13.89" length="20.81" shape="114.67,39.95 114.67,60.76"/>
    </edge>
    <edge id=":gneJ4_3" function="internal">
        <lane id=":gneJ4_3_0" index="0" speed="9.26" length="6.96" shape="114.67,39.95 115.42,45.21 116.27,46.63"/>
    </edge>
    <edge id=":gneJ4_16" function="internal">
        <lane id=":gneJ4_16_0" index="0" speed="9.26" length="12.40" shape="116.27,46.63 117.67,48.96 121.42,51.21 126.68,51.95"/>
    </edge>
    <edge id=":gneJ4_4" function="internal">
        <lane id=":gneJ4_4_0" index="0" speed="6.51" length="9.03" shape="126.67,45.55 124.22,45.21 122.47,44.16 121.42,42.41 121.07,39.96"/>
    </edge>
    <edge id=":gneJ4_5" function="internal">
        <lane id=":gneJ4_5_0" index="0" speed="13.89" length="20.80" shape="126.67,45.55 105.87,45.56"/>
        <lane id=":gneJ4_5_1" index="1" speed="13.89" length="20.80" shape="126.67,48.75 105.87,48.76"/>
    </edge>
    <edge id=":gneJ4_7" function="internal">
        <lane id=":gneJ4_7_0" index="0" speed="9.26" length="19.36" shape="126.67,48.75 121.42,49.51 117.67,51.76 115.42,55.51 114.67,60.76"/>
    </edge>
    <edge id=":gneJ4_8" function="internal">
        <lane id=":gneJ4_8_0" index="0" speed="6.51" length="9.04" shape="121.07,60.76 121.42,58.31 122.47,56.56 124.23,55.51 126.68,55.15"/>
    </edge>
    <edge id=":gneJ4_9" function="internal">
        <lane id=":gneJ4_9_0" index="0" speed="13.89" length="20.80" shape="121.07,60.76 121.07,39.96"/>
        <lane id=":gneJ4_9_1" index="1" speed="13.89" length="20.80" shape="117.87,60.76 117.87,39.95"/>
    </edge>
    <edge id=":gneJ4_11" function="internal">
        <lane id=":gneJ4_11_0" index="0" speed="9.26" length="6.95" shape="117.87,60.76 117.12,55.51 116.27,54.10"/>
    </edge>
    <edge id=":gneJ4_17" function="internal">
        <lane id=":gneJ4_17_0" index="0" speed="9.26" length="12.40" shape="116.27,54.10 114.87,51.76 111.12,49.51 105.87,48.76"/>
    </edge>
    <edge id=":gneJ4_12" function="internal">
        <lane id=":gneJ4_12_0" index="0" speed="6.51" length="9.04" shape="105.87,55.16 108.32,55.51 110.07,56.56 111.12,58.31 111.47,60.76"/>
    </edge>
    <edge id=":gneJ4_13" function="internal">
        <lane id=":gneJ4_13_0" index="0" speed="13.89" length="20.81" shape="105.87,55.16 126.68,55.15"/>
        <lane id=":gneJ4_13_1" index="1" speed="13.89" length="20.81" shape="105.87,51.96 126.68,51.95"/>
    </edge>
    <edge id=":gneJ4_15" function="internal">
        <lane id=":gneJ4_15_0" index="0" speed="9.26" length="19.36" shape="105.87,51.96 111.12,51.21 114.87,48.96 117.12,45.21 117.87,39.95"/>
    </edge>

    <edge id="-gneE2" from="gneJ4" to="gneJ0" priority="-1">
        <lane id="-gneE2_0" index="0" speed="13.89" length="419.26" shape="105.87,45.56 -313.39,45.38"/>
        <lane id="-gneE2_1" index="1" speed="13.89" length="419.26" shape="105.87,48.76 -313.39,48.58"/>
    </edge>
    <edge id="-gneE3" from="gneJ4" to="gneJ3" priority="-1">
        <lane id="-gneE3_0" index="0" speed="13.89" length="219.29" shape="121.07,39.96 121.14,-179.34"/>
        <lane id="-gneE3_1" index="1" speed="13.89" length="219.29" shape="117.87,39.95 117.94,-179.34"/>
    </edge>
    <edge id="-gneE4" from="gneJ2" to="gneJ4" priority="-1">
        <lane id="-gneE4_0" index="0" speed="13.89" length="256.63" shape="121.14,317.39 121.07,60.76"/>
        <lane id="-gneE4_1" index="1" speed="13.89" length="256.63" shape="117.94,317.39 117.87,60.76"/>
    </edge>
    <edge id="-gneE5" from="gneJ1" to="gneJ4" priority="-1">
        <lane id="-gneE5_0" index="0" speed="13.89" length="429.71" shape="556.39,45.31 126.67,45.55"/>
        <lane id="-gneE5_1" index="1" speed="13.89" length="429.71" shape="556.39,48.51 126.67,48.75"/>
    </edge>
    <edge id="gneE2" from="gneJ0" to="gneJ4" priority="-1">
        <lane id="gneE2_0" index="0" speed="13.89" length="419.26" shape="-313.39,54.98 105.87,55.16"/>
        <lane id="gneE2_1" index="1" speed="13.89" length="419.26" shape="-313.39,51.78 105.87,51.96"/>
    </edge>
    <edge id="gneE3" from="gneJ3" to="gneJ4" priority="-1">
        <lane id="gneE3_0" index="0" speed="13.89" length="219.29" shape="111.54,-179.34 111.47,39.95"/>
        <lane id="gneE3_1" index="1" speed="13.89" length="219.29" shape="114.74,-179.34 114.67,39.95"/>
    </edge>
    <edge id="gneE4" from="gneJ4" to="gneJ2" priority="-1">
        <lane id="gneE4_0" index="0" speed="13.89" length="256.63" shape="111.47,60.76 111.54,317.39"/>
        <lane id="gneE4_1" index="1" speed="13.89" length="256.63" shape="114.67,60.76 114.74,317.39"/>
    </edge>
    <edge id="gneE5" from="gneJ4" to="gneJ1" priority="-1">
        <lane id="gneE5_0" index="0" speed="13.89" length="429.71" shape="126.68,55.15 556.39,54.91"/>
        <lane id="gneE5_1" index="1" speed="13.89" length="429.71" shape="126.68,51.95 556.39,51.71"/>
    </edge>

    <junction id="gneJ0" type="dead_end" x="-313.39" y="50.18" incLanes="-gneE2_0 -gneE2_1" intLanes="" shape="-313.39,50.18 -313.39,43.78 -313.39,50.18"/>
    <junction id="gneJ1" type="dead_end" x="556.39" y="50.11" incLanes="gneE5_0 gneE5_1" intLanes="" shape="556.39,50.11 556.39,56.51 556.39,50.11"/>
    <junction id="gneJ2" type="dead_end" x="116.34" y="317.39" incLanes="gneE4_0 gneE4_1" intLanes="" shape="116.34,317.39 109.94,317.39 116.34,317.39"/>
    <junction id="gneJ3" type="dead_end" x="116.34" y="-179.34" incLanes="-gneE3_0 -gneE3_1" intLanes="" shape="116.34,-179.34 122.74,-179.34 116.34,-179.34"/>
    <junction id="gneJ4" type="priority" x="116.27" y="50.36" incLanes="gneE3_0 gneE3_1 -gneE5_0 -gneE5_1 -gneE4_0 -gneE4_1 gneE2_0 gneE2_1" intLanes=":gneJ4_0_0 :gneJ4_1_0 :gneJ4_1_1 :gneJ4_16_0 :gneJ4_4_0 :gneJ4_5_0 :gneJ4_5_1 :gneJ4_7_0 :gneJ4_8_0 :gneJ4_9_0 :gneJ4_9_1 :gneJ4_17_0 :gneJ4_12_0 :gneJ4_13_0 :gneJ4_13_1 :gneJ4_15_0" shape="109.87,39.95 122.67,39.96 123.12,42.18 123.67,42.96 124.45,43.51 125.45,43.84 126.67,43.95 126.68,56.75 124.45,57.20 123.67,57.76 123.12,58.53 122.78,59.53 122.67,60.76 109.87,60.76 109.43,58.54 108.87,57.76 108.09,57.20 107.09,56.87 105.87,56.76 105.87,43.96 108.09,43.51 108.87,42.96 109.43,42.18 109.76,41.18">
        <request index="0"  response="0000000000000000" foes="0000000001100000" cont="0"/>
        <request index="1"  response="0000000000000000" foes="1111100011100000" cont="0"/>
        <request index="2"  response="0000000000000000" foes="1111100011100000" cont="0"/>
        <request index="3"  response="0000011000000000" foes="1110011011100000" cont="1"/>
        <request index="4"  response="0000011000000000" foes="0000011000000000" cont="0"/>
        <request index="5"  response="0000111000001111" foes="1000111000001111" cont="0"/>
        <request index="6"  response="0000111000001111" foes="1000111000001111" cont="0"/>
        <request index="7"  response="0110111000001110" foes="0110111000001110" cont="0"/>
        <request index="8"  response="0000000000000000" foes="0110000000000000" cont="0"/>
        <request index="9"  response="0000000000000000" foes="1110000011111000" cont="0"/>
        <request index="10" response="0000000000000000" foes="1110000011111000" cont="0"/>
        <request index="11" response="0000000000000110" foes="1110000011100110" cont="1"/>
        <request index="12" response="0000000000000110" foes="0000000000000110" cont="0"/>
        <request index="13" response="0000111100001110" foes="0000111110001110" cont="0"/>
        <request index="14" response="0000111100001110" foes="0000111110001110" cont="0"/>
        <request index="15" response="0000111001101110" foes="0000111001101110" cont="0"/>
    </junction>

    <junction id=":gneJ4_16_0" type="internal" x="116.27" y="46.63" incLanes=":gneJ4_3_0 -gneE4_0 -gneE4_1" intLanes=":gneJ4_5_0 :gneJ4_5_1 :gneJ4_7_0 :gneJ4_8_0 :gneJ4_9_0 :gneJ4_9_1 :gneJ4_13_0 :gneJ4_13_1 :gneJ4_15_0"/>
    <junction id=":gneJ4_17_0" type="internal" x="116.27" y="54.10" incLanes=":gneJ4_11_0 gneE3_0 gneE3_1" intLanes=":gneJ4_0_0 :gneJ4_1_0 :gneJ4_1_1 :gneJ4_5_0 :gneJ4_5_1 :gneJ4_7_0 :gneJ4_13_0 :gneJ4_13_1 :gneJ4_15_0"/>

    <connection from="-gneE4" to="gneE5" fromLane="0" toLane="0" via=":gneJ4_8_0" dir="l" state="M"/>
    <connection from="-gneE4" to="-gneE3" fromLane="0" toLane="0" via=":gneJ4_9_0" dir="s" state="M"/>
    <connection from="-gneE4" to="-gneE3" fromLane="1" toLane="1" via=":gneJ4_9_1" dir="s" state="M"/>
    <connection from="-gneE4" to="-gneE2" fromLane="1" toLane="1" via=":gneJ4_11_0" dir="r" state="m"/>
    <connection from="-gneE5" to="-gneE3" fromLane="0" toLane="0" via=":gneJ4_4_0" dir="l" state="m"/>
    <connection from="-gneE5" to="-gneE2" fromLane="0" toLane="0" via=":gneJ4_5_0" dir="s" state="m"/>
    <connection from="-gneE5" to="-gneE2" fromLane="1" toLane="1" via=":gneJ4_5_1" dir="s" state="m"/>
    <connection from="-gneE5" to="gneE4" fromLane="1" toLane="1" via=":gneJ4_7_0" dir="r" state="m"/>
    <connection from="gneE2" to="gneE4" fromLane="0" toLane="0" via=":gneJ4_12_0" dir="l" state="m"/>
    <connection from="gneE2" to="gneE5" fromLane="0" toLane="0" via=":gneJ4_13_0" dir="s" state="m"/>
    <connection from="gneE2" to="gneE5" fromLane="1" toLane="1" via=":gneJ4_13_1" dir="s" state="m"/>
    <connection from="gneE2" to="-gneE3" fromLane="1" toLane="1" via=":gneJ4_15_0" dir="r" state="m"/>
    <connection from="gneE3" to="-gneE2" fromLane="0" toLane="0" via=":gneJ4_0_0" dir="l" state="M"/>
    <connection from="gneE3" to="gneE4" fromLane="0" toLane="0" via=":gneJ4_1_0" dir="s" state="M"/>
    <connection from="gneE3" to="gneE4" fromLane="1" toLane="1" via=":gneJ4_1_1" dir="s" state="M"/>
    <connection from="gneE3" to="gneE5" fromLane="1" toLane="1" via=":gneJ4_3_0" dir="r" state="m"/>

    <connection from=":gneJ4_0" to="-gneE2" fromLane="0" toLane="0" dir="l" state="M"/>
    <connection from=":gneJ4_1" to="gneE4" fromLane="0" toLane="0" dir="s" state="M"/>
    <connection from=":gneJ4_1" to="gneE4" fromLane="1" toLane="1" dir="s" state="M"/>
    <connection from=":gneJ4_3" to="gneE5" fromLane="0" toLane="1" via=":gneJ4_16_0" dir="r" state="m"/>
    <connection from=":gneJ4_16" to="gneE5" fromLane="0" toLane="1" dir="r" state="M"/>
    <connection from=":gneJ4_4" to="-gneE3" fromLane="0" toLane="0" dir="l" state="M"/>
    <connection from=":gneJ4_5" to="-gneE2" fromLane="0" toLane="0" dir="s" state="M"/>
    <connection from=":gneJ4_5" to="-gneE2" fromLane="1" toLane="1" dir="s" state="M"/>
    <connection from=":gneJ4_7" to="gneE4" fromLane="0" toLane="1" dir="r" state="M"/>
    <connection from=":gneJ4_8" to="gneE5" fromLane="0" toLane="0" dir="l" state="M"/>
    <connection from=":gneJ4_9" to="-gneE3" fromLane="0" toLane="0" dir="s" state="M"/>
    <connection from=":gneJ4_9" to="-gneE3" fromLane="1" toLane="1" dir="s" state="M"/>
    <connection from=":gneJ4_11" to="-gneE2" fromLane="0" toLane="1" via=":gneJ4_17_0" dir="r" state="m"/>
    <connection from=":gneJ4_17" to="-gneE2" fromLane="0" toLane="1" dir="r" state="M"/>
    <connection from=":gneJ4_12" to="gneE4" fromLane="0" toLane="0" dir="l" state="M"/>
    <connection from=":gneJ4_13" to="gneE5" fromLane="0" toLane="0" dir="s" state="M"/>
    <connection from=":gneJ4_13" to="gneE5" fromLane="1" toLane="1" dir="s" state="M"/>
    <connection from=":gneJ4_15" to="-gneE3" fromLane="0" toLane="1" dir="r" state="M"/>

</net>
