<?xml version="1.0" encoding="UTF-8"?>

<!-- generated on 02/22/21 13:59:06 by Eclipse SUMO duarouter Version 1.7.0
<configuration xmlns:xsi="http://www.w3.org/2001/XMLSchema-instance" xsi:noNamespaceSchemaLocation="http://sumo.dlr.de/xsd/duarouterConfiguration.xsd">

    <input>
        <net-file value="def.net.xml"/>
        <route-files value="def.trips.xml"/>
    </input>

    <output>
        <output-file value="def.rou.xml"/>
        <alternatives-output value="def.rou.alt.xml"/>
    </output>

    <report>
        <ignore-errors value="true"/>
    </report>

</configuration>
-->

<routes xmlns:xsi="http://www.w3.org/2001/XMLSchema-instance" xsi:noNamespaceSchemaLocation="http://sumo.dlr.de/xsd/routes_file.xsd">
    <vTypeDistribution id="1">
        <vType id="CAV" vClass="passenger" guiShape="truck" minGap="1" tau="1.5" sigma="0.05" speedDev="0.05" carFollowModel="IDM" probability="1"/>
        <vType id="HDC" vClass="passenger" tau="1" lcStrategic="0.5" probability="0" />
    </vTypeDistribution>
    <vehicle id="1" type="1" depart="1.00">
        <route edges="-gneE5 -gneE2"/>
    </vehicle>
    <vehicle id="2" type="1" depart="2.00">
        <route edges="gneE2 gneE4"/>
    </vehicle>
    <vehicle id="3" type="1" depart="3.00">
        <route edges="gneE3 -gneE2"/>
    </vehicle>
    <vehicle id="4" type="1" depart="4.00">
        <route edges="-gneE5 -gneE2"/>
    </vehicle>
    <vehicle id="6" type="1" depart="6.00">
        <route edges="-gneE4 -gneE2"/>
    </vehicle>
    <vehicle id="7" type="1" depart="7.00">
        <route edges="gneE2 gneE4"/>
    </vehicle>
    <vehicle id="9" type="1" depart="9.00">
        <route edges="gneE3 -gneE2"/>
    </vehicle>
    <vehicle id="10" type="1" depart="10.00">
        <route edges="gneE3 gneE4"/>
    </vehicle>
    <vehicle id="11" type="1" depart="11.00">
        <route edges="-gneE5 -gneE2"/>
    </vehicle>
    <vehicle id="13" type="1" depart="13.00">
        <route edges="-gneE4 -gneE2"/>
    </vehicle>
    <vehicle id="14" type="1" depart="14.00">
        <route edges="gneE3 gneE4"/>
    </vehicle>
    <vehicle id="15" type="1" depart="15.00">
        <route edges="gneE3 gneE4"/>
    </vehicle>
    <vehicle id="16" type="1" depart="16.00">
        <route edges="gneE2 gneE5"/>
    </vehicle>
    <vehicle id="17" type="1" depart="17.00">
        <route edges="-gneE5 gneE4"/>
    </vehicle>
    <vehicle id="18" type="1" depart="18.00">
        <route edges="gneE3 gneE4"/>
    </vehicle>
    <vehicle id="19" type="1" depart="19.00">
        <route edges="gneE3 gneE4"/>
    </vehicle>
    <vehicle id="21" type="1" depart="21.00">
        <route edges="-gneE4 -gneE3"/>
    </vehicle>
    <vehicle id="22" type="1" depart="22.00">
        <route edges="-gneE4 -gneE2"/>
    </vehicle>
    <vehicle id="23" type="1" depart="23.00">
        <route edges="-gneE4 -gneE3"/>
    </vehicle>
    <vehicle id="24" type="1" depart="24.00">
        <route edges="gneE2 -gneE3"/>
    </vehicle>
    <vehicle id="25" type="1" depart="25.00">
        <route edges="-gneE5 -gneE2"/>
    </vehicle>
    <vehicle id="27" type="1" depart="27.00">
        <route edges="gneE2 gneE4"/>
    </vehicle>
    <vehicle id="29" type="1" depart="29.00">
        <route edges="-gneE4 -gneE3"/>
    </vehicle>
    <vehicle id="30" type="1" depart="30.00">
        <route edges="gneE3 gneE4"/>
    </vehicle>
    <vehicle id="31" type="1" depart="31.00">
        <route edges="gneE2 gneE4"/>
    </vehicle>
    <vehicle id="32" type="1" depart="32.00">
        <route edges="gneE3 gneE5"/>
    </vehicle>
    <vehicle id="33" type="1" depart="33.00">
        <route edges="-gneE4 -gneE2"/>
    </vehicle>
    <vehicle id="34" type="1" depart="34.00">
        <route edges="-gneE5 -gneE3"/>
    </vehicle>
    <vehicle id="35" type="1" depart="35.00">
        <route edges="-gneE4 gneE5"/>
    </vehicle>
    <vehicle id="37" type="1" depart="37.00">
        <route edges="gneE2 -gneE3"/>
    </vehicle>
    <vehicle id="39" type="1" depart="39.00">
        <route edges="-gneE5 -gneE2"/>
    </vehicle>
    <vehicle id="40" type="1" depart="40.00">
        <route edges="gneE2 -gneE3"/>
    </vehicle>
    <vehicle id="41" type="1" depart="41.00">
        <route edges="gneE2 gneE5"/>
    </vehicle>
    <vehicle id="42" type="1" depart="42.00">
        <route edges="-gneE5 -gneE2"/>
    </vehicle>
    <vehicle id="43" type="1" depart="43.00">
        <route edges="gneE3 gneE4"/>
    </vehicle>
    <vehicle id="44" type="1" depart="44.00">
        <route edges="-gneE4 -gneE2"/>
    </vehicle>
    <vehicle id="47" type="1" depart="47.00">
        <route edges="-gneE4 -gneE3"/>
    </vehicle>
    <vehicle id="48" type="1" depart="48.00">
        <route edges="gneE3 gneE4"/>
    </vehicle>
    <vehicle id="49" type="1" depart="49.00">
        <route edges="gneE3 gneE5"/>
    </vehicle>
    <vehicle id="51" type="1" depart="51.00">
        <route edges="gneE2 gneE4"/>
    </vehicle>
    <vehicle id="52" type="1" depart="52.00">
        <route edges="-gneE5 gneE4"/>
    </vehicle>
    <vehicle id="53" type="1" depart="53.00">
        <route edges="-gneE4 -gneE3"/>
    </vehicle>
    <vehicle id="57" type="1" depart="57.00">
        <route edges="gneE3 gneE5"/>
    </vehicle>
    <vehicle id="58" type="1" depart="58.00">
        <route edges="-gneE5 gneE4"/>
    </vehicle>
    <vehicle id="60" type="1" depart="60.00">
        <route edges="gneE3 gneE4"/>
    </vehicle>
    <vehicle id="61" type="1" depart="61.00">
        <route edges="gneE3 gneE4"/>
    </vehicle>
    <vehicle id="62" type="1" depart="62.00">
        <route edges="-gneE4 -gneE3"/>
    </vehicle>
    <vehicle id="63" type="1" depart="63.00">
        <route edges="-gneE4 gneE5"/>
    </vehicle>
    <vehicle id="64" type="1" depart="64.00">
        <route edges="gneE3 gneE5"/>
    </vehicle>
    <vehicle id="65" type="1" depart="65.00">
        <route edges="-gneE5 -gneE2"/>
    </vehicle>
    <vehicle id="66" type="1" depart="66.00">
        <route edges="gneE3 gneE5"/>
    </vehicle>
    <vehicle id="67" type="1" depart="67.00">
        <route edges="-gneE4 -gneE3"/>
    </vehicle>
    <vehicle id="68" type="1" depart="68.00">
        <route edges="-gneE4 gneE5"/>
    </vehicle>
    <vehicle id="69" type="1" depart="69.00">
        <route edges="gneE3 -gneE2"/>
    </vehicle>
    <vehicle id="70" type="1" depart="70.00">
        <route edges="-gneE5 gneE4"/>
    </vehicle>
    <vehicle id="72" type="1" depart="72.00">
        <route edges="-gneE5 -gneE2"/>
    </vehicle>
    <vehicle id="73" type="1" depart="73.00">
        <route edges="gneE2 gneE4"/>
    </vehicle>
    <vehicle id="74" type="1" depart="74.00">
        <route edges="-gneE4 -gneE3"/>
    </vehicle>
    <vehicle id="75" type="1" depart="75.00">
        <route edges="gneE3 gneE4"/>
    </vehicle>
    <vehicle id="76" type="1" depart="76.00">
        <route edges="-gneE5 gneE4"/>
    </vehicle>
    <vehicle id="77" type="1" depart="77.00">
        <route edges="-gneE4 -gneE2"/>
    </vehicle>
    <vehicle id="78" type="1" depart="78.00">
        <route edges="-gneE5 gneE4"/>
    </vehicle>
    <vehicle id="79" type="1" depart="79.00">
        <route edges="-gneE4 -gneE2"/>
    </vehicle>
    <vehicle id="81" type="1" depart="81.00">
        <route edges="-gneE4 gneE5"/>
    </vehicle>
    <vehicle id="82" type="1" depart="82.00">
        <route edges="gneE3 -gneE2"/>
    </vehicle>
    <vehicle id="84" type="1" depart="84.00">
        <route edges="-gneE4 -gneE2"/>
    </vehicle>
    <vehicle id="85" type="1" depart="85.00">
        <route edges="gneE3 gneE4"/>
    </vehicle>
    <vehicle id="87" type="1" depart="87.00">
        <route edges="gneE3 -gneE2"/>
    </vehicle>
    <vehicle id="88" type="1" depart="88.00">
        <route edges="-gneE4 -gneE3"/>
    </vehicle>
    <vehicle id="89" type="1" depart="89.00">
        <route edges="-gneE5 -gneE3"/>
    </vehicle>
    <vehicle id="90" type="1" depart="90.00">
        <route edges="gneE2 gneE4"/>
    </vehicle>
    <vehicle id="91" type="1" depart="91.00">
        <route edges="gneE3 -gneE2"/>
    </vehicle>
    <vehicle id="92" type="1" depart="92.00">
        <route edges="-gneE5 -gneE3"/>
    </vehicle>
    <vehicle id="93" type="1" depart="93.00">
        <route edges="gneE3 -gneE2"/>
    </vehicle>
    <vehicle id="94" type="1" depart="94.00">
        <route edges="-gneE4 -gneE3"/>
    </vehicle>
    <vehicle id="95" type="1" depart="95.00">
        <route edges="-gneE5 -gneE3"/>
    </vehicle>
    <vehicle id="96" type="1" depart="96.00">
        <route edges="-gneE4 gneE5"/>
    </vehicle>
    <vehicle id="99" type="1" depart="99.00">
        <route edges="gneE3 gneE5"/>
    </vehicle>
    <vehicle id="100" type="1" depart="100.00">
        <route edges="gneE3 gneE5"/>
    </vehicle>
    <vehicle id="101" type="1" depart="101.00">
        <route edges="gneE3 -gneE2"/>
    </vehicle>
    <vehicle id="102" type="1" depart="102.00">
        <route edges="-gneE5 -gneE2"/>
    </vehicle>
    <vehicle id="103" type="1" depart="103.00">
        <route edges="-gneE5 -gneE2"/>
    </vehicle>
    <vehicle id="106" type="1" depart="106.00">
        <route edges="-gneE5 -gneE3"/>
    </vehicle>
    <vehicle id="107" type="1" depart="107.00">
        <route edges="gneE3 gneE5"/>
    </vehicle>
    <vehicle id="108" type="1" depart="108.00">
        <route edges="gneE2 gneE4"/>
    </vehicle>
    <vehicle id="109" type="1" depart="109.00">
        <route edges="-gneE4 -gneE3"/>
    </vehicle>
    <vehicle id="110" type="1" depart="110.00">
        <route edges="gneE3 gneE4"/>
    </vehicle>
    <vehicle id="111" type="1" depart="111.00">
        <route edges="gneE2 gneE4"/>
    </vehicle>
    <vehicle id="113" type="1" depart="113.00">
        <route edges="gneE2 gneE5"/>
    </vehicle>
    <vehicle id="114" type="1" depart="114.00">
        <route edges="-gneE4 gneE5"/>
    </vehicle>
    <vehicle id="115" type="1" depart="115.00">
        <route edges="-gneE4 -gneE2"/>
    </vehicle>
    <vehicle id="116" type="1" depart="116.00">
        <route edges="gneE2 gneE4"/>
    </vehicle>
    <vehicle id="117" type="1" depart="117.00">
        <route edges="-gneE4 -gneE2"/>
    </vehicle>
    <vehicle id="118" type="1" depart="118.00">
        <route edges="gneE3 -gneE2"/>
    </vehicle>
    <vehicle id="119" type="1" depart="119.00">
        <route edges="gneE2 gneE4"/>
    </vehicle>
    <vehicle id="120" type="1" depart="120.00">
        <route edges="-gneE5 gneE4"/>
    </vehicle>
    <vehicle id="121" type="1" depart="121.00">
        <route edges="gneE2 gneE5"/>
    </vehicle>
    <vehicle id="123" type="1" depart="123.00">
        <route edges="-gneE4 -gneE3"/>
    </vehicle>
    <vehicle id="124" type="1" depart="124.00">
        <route edges="gneE2 -gneE3"/>
    </vehicle>
    <vehicle id="126" type="1" depart="126.00">
        <route edges="-gneE4 -gneE3"/>
    </vehicle>
    <vehicle id="127" type="1" depart="127.00">
        <route edges="gneE3 gneE5"/>
    </vehicle>
    <vehicle id="128" type="1" depart="128.00">
        <route edges="-gneE4 -gneE2"/>
    </vehicle>
    <vehicle id="130" type="1" depart="130.00">
        <route edges="gneE3 gneE5"/>
    </vehicle>
    <vehicle id="131" type="1" depart="131.00">
        <route edges="-gneE5 -gneE2"/>
    </vehicle>
    <vehicle id="132" type="1" depart="132.00">
        <route edges="gneE3 gneE4"/>
    </vehicle>
    <vehicle id="133" type="1" depart="133.00">
        <route edges="gneE2 gneE5"/>
    </vehicle>
    <vehicle id="136" type="1" depart="136.00">
        <route edges="gneE2 gneE5"/>
    </vehicle>
    <vehicle id="137" type="1" depart="137.00">
        <route edges="-gneE4 -gneE2"/>
    </vehicle>
    <vehicle id="139" type="1" depart="139.00">
        <route edges="-gneE5 gneE4"/>
    </vehicle>
    <vehicle id="141" type="1" depart="141.00">
        <route edges="gneE2 -gneE3"/>
    </vehicle>
    <vehicle id="143" type="1" depart="143.00">
        <route edges="gneE3 -gneE2"/>
    </vehicle>
    <vehicle id="144" type="1" depart="144.00">
        <route edges="-gneE5 -gneE3"/>
    </vehicle>
    <vehicle id="145" type="1" depart="145.00">
        <route edges="-gneE4 gneE5"/>
    </vehicle>
    <vehicle id="146" type="1" depart="146.00">
        <route edges="gneE2 -gneE3"/>
    </vehicle>
    <vehicle id="147" type="1" depart="147.00">
        <route edges="gneE2 gneE4"/>
    </vehicle>
    <vehicle id="148" type="1" depart="148.00">
        <route edges="-gneE5 -gneE2"/>
    </vehicle>
    <vehicle id="149" type="1" depart="149.00">
        <route edges="-gneE4 gneE5"/>
    </vehicle>
    <vehicle id="150" type="1" depart="150.00">
        <route edges="gneE3 gneE4"/>
    </vehicle>
    <vehicle id="151" type="1" depart="151.00">
        <route edges="gneE3 gneE4"/>
    </vehicle>
    <vehicle id="152" type="1" depart="152.00">
        <route edges="-gneE4 -gneE2"/>
    </vehicle>
    <vehicle id="154" type="1" depart="154.00">
        <route edges="gneE3 gneE5"/>
    </vehicle>
    <vehicle id="155" type="1" depart="155.00">
        <route edges="gneE3 -gneE2"/>
    </vehicle>
    <vehicle id="156" type="1" depart="156.00">
        <route edges="-gneE4 -gneE2"/>
    </vehicle>
    <vehicle id="157" type="1" depart="157.00">
        <route edges="gneE3 gneE5"/>
    </vehicle>
    <vehicle id="158" type="1" depart="158.00">
        <route edges="-gneE5 gneE4"/>
    </vehicle>
    <vehicle id="159" type="1" depart="159.00">
        <route edges="-gneE4 gneE5"/>
    </vehicle>
    <vehicle id="160" type="1" depart="160.00">
        <route edges="gneE3 gneE5"/>
    </vehicle>
    <vehicle id="161" type="1" depart="161.00">
        <route edges="gneE3 gneE5"/>
    </vehicle>
    <vehicle id="164" type="1" depart="164.00">
        <route edges="gneE3 gneE5"/>
    </vehicle>
    <vehicle id="166" type="1" depart="166.00">
        <route edges="gneE3 -gneE2"/>
    </vehicle>
    <vehicle id="167" type="1" depart="167.00">
        <route edges="gneE3 gneE5"/>
    </vehicle>
    <vehicle id="168" type="1" depart="168.00">
        <route edges="-gneE4 gneE5"/>
    </vehicle>
    <vehicle id="169" type="1" depart="169.00">
        <route edges="-gneE5 -gneE3"/>
    </vehicle>
    <vehicle id="170" type="1" depart="170.00">
        <route edges="gneE3 -gneE2"/>
    </vehicle>
    <vehicle id="171" type="1" depart="171.00">
        <route edges="-gneE4 -gneE2"/>
    </vehicle>
    <vehicle id="174" type="1" depart="174.00">
        <route edges="gneE2 -gneE3"/>
    </vehicle>
    <vehicle id="175" type="1" depart="175.00">
        <route edges="gneE3 gneE4"/>
    </vehicle>
    <vehicle id="176" type="1" depart="176.00">
        <route edges="gneE3 -gneE2"/>
    </vehicle>
    <vehicle id="177" type="1" depart="177.00">
        <route edges="gneE3 -gneE2"/>
    </vehicle>
    <vehicle id="179" type="1" depart="179.00">
        <route edges="-gneE4 -gneE3"/>
    </vehicle>
    <vehicle id="180" type="1" depart="180.00">
        <route edges="gneE2 -gneE3"/>
    </vehicle>
    <vehicle id="181" type="1" depart="181.00">
        <route edges="gneE2 gneE4"/>
    </vehicle>
    <vehicle id="182" type="1" depart="182.00">
        <route edges="-gneE5 gneE4"/>
    </vehicle>
    <vehicle id="183" type="1" depart="183.00">
        <route edges="-gneE5 gneE4"/>
    </vehicle>
    <vehicle id="184" type="1" depart="184.00">
        <route edges="-gneE4 gneE5"/>
    </vehicle>
    <vehicle id="185" type="1" depart="185.00">
        <route edges="gneE2 gneE4"/>
    </vehicle>
    <vehicle id="186" type="1" depart="186.00">
        <route edges="gneE2 gneE4"/>
    </vehicle>
    <vehicle id="187" type="1" depart="187.00">
        <route edges="-gneE5 -gneE2"/>
    </vehicle>
    <vehicle id="188" type="1" depart="188.00">
        <route edges="gneE2 -gneE3"/>
    </vehicle>
    <vehicle id="190" type="1" depart="190.00">
        <route edges="gneE2 -gneE3"/>
    </vehicle>
    <vehicle id="191" type="1" depart="191.00">
        <route edges="-gneE5 -gneE3"/>
    </vehicle>
    <vehicle id="192" type="1" depart="192.00">
        <route edges="-gneE5 -gneE3"/>
    </vehicle>
    <vehicle id="193" type="1" depart="193.00">
        <route edges="-gneE4 -gneE3"/>
    </vehicle>
    <vehicle id="194" type="1" depart="194.00">
        <route edges="gneE3 gneE4"/>
    </vehicle>
    <vehicle id="195" type="1" depart="195.00">
        <route edges="gneE3 gneE4"/>
    </vehicle>
    <vehicle id="196" type="1" depart="196.00">
        <route edges="-gneE5 gneE4"/>
    </vehicle>
    <vehicle id="197" type="1" depart="197.00">
        <route edges="-gneE4 -gneE3"/>
    </vehicle>
    <vehicle id="198" type="1" depart="198.00">
        <route edges="-gneE5 gneE4"/>
    </vehicle>
    <vehicle id="199" type="1" depart="199.00">
        <route edges="gneE2 -gneE3"/>
    </vehicle>
    <vehicle id="200" type="1" depart="200.00">
        <route edges="-gneE5 -gneE2"/>
    </vehicle>
    <vehicle id="202" type="1" depart="202.00">
        <route edges="gneE3 -gneE2"/>
    </vehicle>
    <vehicle id="204" type="1" depart="204.00">
        <route edges="gneE2 -gneE3"/>
    </vehicle>
    <vehicle id="205" type="1" depart="205.00">
        <route edges="gneE3 gneE5"/>
    </vehicle>
    <vehicle id="207" type="1" depart="207.00">
        <route edges="-gneE4 -gneE2"/>
    </vehicle>
    <vehicle id="208" type="1" depart="208.00">
        <route edges="-gneE4 -gneE3"/>
    </vehicle>
    <vehicle id="209" type="1" depart="209.00">
        <route edges="gneE3 -gneE2"/>
    </vehicle>
    <vehicle id="210" type="1" depart="210.00">
        <route edges="-gneE5 gneE4"/>
    </vehicle>
    <vehicle id="212" type="1" depart="212.00">
        <route edges="-gneE5 -gneE2"/>
    </vehicle>
    <vehicle id="214" type="1" depart="214.00">
        <route edges="gneE3 gneE5"/>
    </vehicle>
    <vehicle id="215" type="1" depart="215.00">
        <route edges="-gneE4 -gneE3"/>
    </vehicle>
    <vehicle id="216" type="1" depart="216.00">
        <route edges="-gneE4 gneE5"/>
    </vehicle>
    <vehicle id="218" type="1" depart="218.00">
        <route edges="-gneE4 gneE5"/>
    </vehicle>
    <vehicle id="220" type="1" depart="220.00">
        <route edges="gneE2 gneE5"/>
    </vehicle>
    <vehicle id="221" type="1" depart="221.00">
        <route edges="gneE2 gneE5"/>
    </vehicle>
    <vehicle id="222" type="1" depart="222.00">
        <route edges="gneE3 gneE4"/>
    </vehicle>
    <vehicle id="223" type="1" depart="223.00">
        <route edges="gneE2 gneE4"/>
    </vehicle>
    <vehicle id="224" type="1" depart="224.00">
        <route edges="gneE3 gneE4"/>
    </vehicle>
    <vehicle id="225" type="1" depart="225.00">
        <route edges="gneE3 gneE4"/>
    </vehicle>
    <vehicle id="226" type="1" depart="226.00">
        <route edges="-gneE5 -gneE3"/>
    </vehicle>
    <vehicle id="228" type="1" depart="228.00">
        <route edges="gneE3 gneE4"/>
    </vehicle>
    <vehicle id="229" type="1" depart="229.00">
        <route edges="gneE2 -gneE3"/>
    </vehicle>
    <vehicle id="230" type="1" depart="230.00">
        <route edges="-gneE4 -gneE3"/>
    </vehicle>
    <vehicle id="231" type="1" depart="231.00">
        <route edges="-gneE5 -gneE3"/>
    </vehicle>
    <vehicle id="235" type="1" depart="235.00">
        <route edges="-gneE5 gneE4"/>
    </vehicle>
    <vehicle id="236" type="1" depart="236.00">
        <route edges="-gneE5 -gneE2"/>
    </vehicle>
    <vehicle id="238" type="1" depart="238.00">
        <route edges="gneE2 gneE4"/>
    </vehicle>
    <vehicle id="239" type="1" depart="239.00">
        <route edges="gneE3 gneE5"/>
    </vehicle>
    <vehicle id="240" type="1" depart="240.00">
        <route edges="-gneE5 -gneE2"/>
    </vehicle>
    <vehicle id="242" type="1" depart="242.00">
        <route edges="gneE3 gneE5"/>
    </vehicle>
    <vehicle id="243" type="1" depart="243.00">
        <route edges="-gneE5 gneE4"/>
    </vehicle>
    <vehicle id="244" type="1" depart="244.00">
        <route edges="gneE2 gneE4"/>
    </vehicle>
    <vehicle id="245" type="1" depart="245.00">
        <route edges="-gneE4 -gneE2"/>
    </vehicle>
    <vehicle id="246" type="1" depart="246.00">
        <route edges="-gneE5 -gneE2"/>
    </vehicle>
    <vehicle id="247" type="1" depart="247.00">
        <route edges="-gneE5 gneE4"/>
    </vehicle>
    <vehicle id="248" type="1" depart="248.00">
        <route edges="-gneE5 -gneE2"/>
    </vehicle>
    <vehicle id="249" type="1" depart="249.00">
        <route edges="-gneE5 -gneE2"/>
    </vehicle>
    <vehicle id="251" type="1" depart="251.00">
        <route edges="-gneE5 gneE4"/>
    </vehicle>
    <vehicle id="253" type="1" depart="253.00">
        <route edges="-gneE4 -gneE3"/>
    </vehicle>
    <vehicle id="254" type="1" depart="254.00">
        <route edges="-gneE4 -gneE3"/>
    </vehicle>
    <vehicle id="255" type="1" depart="255.00">
        <route edges="-gneE4 -gneE3"/>
    </vehicle>
    <vehicle id="257" type="1" depart="257.00">
        <route edges="gneE3 gneE5"/>
    </vehicle>
    <vehicle id="258" type="1" depart="258.00">
        <route edges="-gneE5 -gneE2"/>
    </vehicle>
    <vehicle id="261" type="1" depart="261.00">
        <route edges="gneE2 gneE5"/>
    </vehicle>
    <vehicle id="262" type="1" depart="262.00">
        <route edges="gneE2 gneE5"/>
    </vehicle>
    <vehicle id="263" type="1" depart="263.00">
        <route edges="gneE3 -gneE2"/>
    </vehicle>
    <vehicle id="264" type="1" depart="264.00">
        <route edges="-gneE4 -gneE2"/>
    </vehicle>
    <vehicle id="267" type="1" depart="267.00">
        <route edges="gneE2 gneE5"/>
    </vehicle>
    <vehicle id="270" type="1" depart="270.00">
        <route edges="gneE3 gneE5"/>
    </vehicle>
    <vehicle id="271" type="1" depart="271.00">
        <route edges="-gneE4 -gneE2"/>
    </vehicle>
    <vehicle id="272" type="1" depart="272.00">
        <route edges="-gneE5 gneE4"/>
    </vehicle>
    <vehicle id="275" type="1" depart="275.00">
        <route edges="gneE2 gneE4"/>
    </vehicle>
    <vehicle id="276" type="1" depart="276.00">
        <route edges="-gneE4 gneE5"/>
    </vehicle>
    <vehicle id="277" type="1" depart="277.00">
        <route edges="gneE3 gneE4"/>
    </vehicle>
    <vehicle id="278" type="1" depart="278.00">
        <route edges="-gneE4 gneE5"/>
    </vehicle>
    <vehicle id="280" type="1" depart="280.00">
        <route edges="-gneE5 -gneE3"/>
    </vehicle>
    <vehicle id="281" type="1" depart="281.00">
        <route edges="gneE2 -gneE3"/>
    </vehicle>
    <vehicle id="282" type="1" depart="282.00">
        <route edges="gneE3 gneE5"/>
    </vehicle>
    <vehicle id="283" type="1" depart="283.00">
        <route edges="-gneE4 gneE5"/>
    </vehicle>
    <vehicle id="284" type="1" depart="284.00">
        <route edges="gneE2 gneE5"/>
    </vehicle>
    <vehicle id="285" type="1" depart="285.00">
        <route edges="gneE2 -gneE3"/>
    </vehicle>
    <vehicle id="286" type="1" depart="286.00">
        <route edges="gneE2 gneE5"/>
    </vehicle>
    <vehicle id="288" type="1" depart="288.00">
        <route edges="gneE2 -gneE3"/>
    </vehicle>
    <vehicle id="289" type="1" depart="289.00">
        <route edges="-gneE5 gneE4"/>
    </vehicle>
    <vehicle id="291" type="1" depart="291.00">
        <route edges="gneE3 -gneE2"/>
    </vehicle>
    <vehicle id="292" type="1" depart="292.00">
        <route edges="gneE3 -gneE2"/>
    </vehicle>
    <vehicle id="293" type="1" depart="293.00">
        <route edges="-gneE5 gneE4"/>
    </vehicle>
    <vehicle id="294" type="1" depart="294.00">
        <route edges="-gneE5 -gneE2"/>
    </vehicle>
    <vehicle id="295" type="1" depart="295.00">
        <route edges="gneE3 -gneE2"/>
    </vehicle>
    <vehicle id="296" type="1" depart="296.00">
        <route edges="-gneE4 gneE5"/>
    </vehicle>
    <vehicle id="298" type="1" depart="298.00">
        <route edges="gneE2 -gneE3"/>
    </vehicle>
    <vehicle id="299" type="1" depart="299.00">
        <route edges="-gneE4 gneE5"/>
    </vehicle>
    <vehicle id="302" type="1" depart="302.00">
        <route edges="gneE2 gneE4"/>
    </vehicle>
    <vehicle id="304" type="1" depart="304.00">
        <route edges="-gneE4 -gneE2"/>
    </vehicle>
    <vehicle id="305" type="1" depart="305.00">
        <route edges="gneE2 -gneE3"/>
    </vehicle>
    <vehicle id="306" type="1" depart="306.00">
        <route edges="gneE2 -gneE3"/>
    </vehicle>
    <vehicle id="307" type="1" depart="307.00">
        <route edges="gneE2 -gneE3"/>
    </vehicle>
    <vehicle id="308" type="1" depart="308.00">
        <route edges="gneE2 -gneE3"/>
    </vehicle>
    <vehicle id="309" type="1" depart="309.00">
        <route edges="gneE2 -gneE3"/>
    </vehicle>
    <vehicle id="310" type="1" depart="310.00">
        <route edges="-gneE5 -gneE2"/>
    </vehicle>
    <vehicle id="311" type="1" depart="311.00">
        <route edges="-gneE4 -gneE2"/>
    </vehicle>
    <vehicle id="312" type="1" depart="312.00">
        <route edges="gneE2 gneE5"/>
    </vehicle>
    <vehicle id="313" type="1" depart="313.00">
        <route edges="-gneE4 -gneE2"/>
    </vehicle>
    <vehicle id="314" type="1" depart="314.00">
        <route edges="-gneE5 gneE4"/>
    </vehicle>
    <vehicle id="315" type="1" depart="315.00">
        <route edges="gneE3 gneE4"/>
    </vehicle>
    <vehicle id="316" type="1" depart="316.00">
        <route edges="-gneE5 -gneE2"/>
    </vehicle>
    <vehicle id="317" type="1" depart="317.00">
        <route edges="-gneE4 -gneE2"/>
    </vehicle>
    <vehicle id="318" type="1" depart="318.00">
        <route edges="-gneE4 -gneE2"/>
    </vehicle>
    <vehicle id="319" type="1" depart="319.00">
        <route edges="gneE2 -gneE3"/>
    </vehicle>
    <vehicle id="320" type="1" depart="320.00">
        <route edges="gneE3 gneE4"/>
    </vehicle>
    <vehicle id="323" type="1" depart="323.00">
        <route edges="gneE3 gneE4"/>
    </vehicle>
    <vehicle id="324" type="1" depart="324.00">
        <route edges="-gneE5 -gneE3"/>
    </vehicle>
    <vehicle id="325" type="1" depart="325.00">
        <route edges="-gneE4 -gneE2"/>
    </vehicle>
    <vehicle id="329" type="1" depart="329.00">
        <route edges="-gneE4 -gneE2"/>
    </vehicle>
    <vehicle id="330" type="1" depart="330.00">
        <route edges="gneE2 -gneE3"/>
    </vehicle>
    <vehicle id="331" type="1" depart="331.00">
        <route edges="gneE3 -gneE2"/>
    </vehicle>
    <vehicle id="332" type="1" depart="332.00">
        <route edges="gneE3 gneE4"/>
    </vehicle>
    <vehicle id="333" type="1" depart="333.00">
        <route edges="gneE3 -gneE2"/>
    </vehicle>
    <vehicle id="334" type="1" depart="334.00">
        <route edges="gneE2 -gneE3"/>
    </vehicle>
    <vehicle id="337" type="1" depart="337.00">
        <route edges="gneE2 gneE4"/>
    </vehicle>
    <vehicle id="338" type="1" depart="338.00">
        <route edges="gneE2 gneE5"/>
    </vehicle>
    <vehicle id="339" type="1" depart="339.00">
        <route edges="-gneE4 -gneE2"/>
    </vehicle>
    <vehicle id="341" type="1" depart="341.00">
        <route edges="-gneE4 -gneE2"/>
    </vehicle>
    <vehicle id="342" type="1" depart="342.00">
        <route edges="-gneE4 -gneE3"/>
    </vehicle>
    <vehicle id="343" type="1" depart="343.00">
        <route edges="gneE2 -gneE3"/>
    </vehicle>
    <vehicle id="345" type="1" depart="345.00">
        <route edges="gneE2 -gneE3"/>
    </vehicle>
    <vehicle id="346" type="1" depart="346.00">
        <route edges="gneE2 gneE5"/>
    </vehicle>
    <vehicle id="347" type="1" depart="347.00">
        <route edges="gneE3 gneE4"/>
    </vehicle>
    <vehicle id="348" type="1" depart="348.00">
        <route edges="gneE2 gneE5"/>
    </vehicle>
    <vehicle id="349" type="1" depart="349.00">
        <route edges="-gneE5 gneE4"/>
    </vehicle>
    <vehicle id="350" type="1" depart="350.00">
        <route edges="gneE2 gneE5"/>
    </vehicle>
    <vehicle id="351" type="1" depart="351.00">
        <route edges="gneE3 -gneE2"/>
    </vehicle>
    <vehicle id="352" type="1" depart="352.00">
        <route edges="-gneE4 -gneE3"/>
    </vehicle>
    <vehicle id="353" type="1" depart="353.00">
        <route edges="gneE2 gneE4"/>
    </vehicle>
    <vehicle id="354" type="1" depart="354.00">
        <route edges="-gneE5 -gneE2"/>
    </vehicle>
    <vehicle id="355" type="1" depart="355.00">
        <route edges="gneE2 gneE4"/>
    </vehicle>
    <vehicle id="356" type="1" depart="356.00">
        <route edges="gneE3 gneE4"/>
    </vehicle>
    <vehicle id="357" type="1" depart="357.00">
        <route edges="-gneE5 -gneE2"/>
    </vehicle>
    <vehicle id="358" type="1" depart="358.00">
        <route edges="-gneE4 -gneE3"/>
    </vehicle>
    <vehicle id="359" type="1" depart="359.00">
        <route edges="-gneE5 -gneE3"/>
    </vehicle>
    <vehicle id="360" type="1" depart="360.00">
        <route edges="-gneE4 gneE5"/>
    </vehicle>
    <vehicle id="361" type="1" depart="361.00">
        <route edges="gneE3 gneE4"/>
    </vehicle>
    <vehicle id="362" type="1" depart="362.00">
        <route edges="gneE3 gneE5"/>
    </vehicle>
    <vehicle id="363" type="1" depart="363.00">
        <route edges="gneE2 -gneE3"/>
    </vehicle>
    <vehicle id="364" type="1" depart="364.00">
        <route edges="-gneE4 gneE5"/>
    </vehicle>
    <vehicle id="365" type="1" depart="365.00">
        <route edges="-gneE5 gneE4"/>
    </vehicle>
    <vehicle id="366" type="1" depart="366.00">
        <route edges="gneE3 -gneE2"/>
    </vehicle>
    <vehicle id="367" type="1" depart="367.00">
        <route edges="gneE2 gneE4"/>
    </vehicle>
    <vehicle id="368" type="1" depart="368.00">
        <route edges="-gneE5 -gneE2"/>
    </vehicle>
    <vehicle id="369" type="1" depart="369.00">