<?xml version="1.0" encoding="UTF-8"?>

<configuration xmlns:xsi="http://www.w3.org/2001/XMLSchema-instance" xsi:noNamespaceSchemaLocation="http://sumo.dlr.de/xsd/duarouterConfiguration.xsd">

    <input>
        <net-file value="def.net.xml"/>
        <route-files value="def.rou.xml"/>
    </input>

    <time>
        <begin value="0"/>
        <end value="8640"/>
    </time>

    <output>
		<device.rerouting.probability value="1"/>
		<device.rerouting.threads value="8"/>
	</output>

</configuration>