<?xml version="1.0" encoding="UTF-8"?>

<!-- generated on 04/12/21 02:41:02 by Eclipse SUMO duarouter Version v1_8_0+1925-6bf04e0fef
<configuration xmlns:xsi="http://www.w3.org/2001/XMLSchema-instance" xsi:noNamespaceSchemaLocation="http://sumo.dlr.de/xsd/duarouterConfiguration.xsd">

    <input>
        <net-file value="galwayclean.net.xml"/>
        <route-files value="galway.trips.xml"/>
    </input>

    <output>
        <output-file value="galway.trips.xml.tmp"/>
        <write-trips value="true"/>
    </output>

    <time>
        <begin value="0"/>
        <end value="10000"/>
    </time>

    <report>
        <no-warnings value="true"/>
        <ignore-errors value="true"/>
        <no-step-log value="true"/>
    </report>

</configuration>
-->

<routes xmlns:xsi="http://www.w3.org/2001/XMLSchema-instance" xsi:noNamespaceSchemaLocation="http://sumo.dlr.de/xsd/routes_file.xsd">
    <trip id="0" depart="0.00" from="209603948#0" to="-131654695#4"/>
    <trip id="1" depart="1.00" from="-306865642#1" to="-28007444"/>
    <trip id="3" depart="3.00" from="95744295#3" to="-146581704#1"/>
    <trip id="4" depart="4.00" from="-95807628#3" to="-131654742#0"/>
    <trip id="5" depart="5.00" from="-26356156" to="131753599#1"/>
    <trip id="6" depart="6.00" from="-131654694#1" to="-25897691#0"/>
    <trip id="7" depart="7.00" from="22762648#5" to="131876457#3"/>
    <trip id="8" depart="8.00" from="-26356160#0" to="186543837"/>
    <trip id="9" depart="9.00" from="373777904.751" to="-105412946#13"/>
    <trip id="10" depart="10.00" from="34705972#1" to="245232805"/>
    <trip id="11" depart="11.00" from="-601761837#1" to="-210669768#2"/>
    <trip id="14" depart="14.00" from="52349267#1" to="196190040#3"/>
    <trip id="15" depart="15.00" from="34705986#0" to="26356152#1"/>
    <trip id="16" depart="16.00" from="131838566#6" to="95896493#0"/>
    <trip id="17" depart="17.00" from="-95744298#1" to="138505352"/>
    <trip id="18" depart="18.00" from="52313122#12" to="202855533#0"/>
    <trip id="19" depart="19.00" from="803436833#16" to="161466421#0"/>
    <trip id="20" depart="20.00" from="245232807#2" to="-131755014#0"/>
    <trip id="21" depart="21.00" from="-26370271#3" to="-42888553#1"/>
    <trip id="22" depart="22.00" from="-131876459#2" to="-28530504#2"/>
    <trip id="23" depart="23.00" from="-160671720#2" to="-338085757#1"/>
    <trip id="24" depart="24.00" from="208654765#2" to="-95744306"/>
    <trip id="26" depart="26.00" from="-306596440#7" to="95807619#7"/>
    <trip id="27" depart="27.00" from="22762648#2" to="196190054"/>
    <trip id="28" depart="28.00" from="-22762648#2" to="26356152#0"/>
    <trip id="30" depart="30.00" from="95897165" to="210163889"/>
    <trip id="31" depart="31.00" from="131876460#1" to="24402215#0"/>
    <trip id="32" depart="32.00" from="52322186" to="292330787#4"/>
    <trip id="33" depart="33.00" from="-26370272#0" to="-131654813"/>
    <trip id="34" depart="34.00" from="-52313122#15" to="-306871369#2"/>
    <trip id="35" depart="35.00" from="-26356127" to="95807621#1"/>
    <trip id="36" depart="36.00" from="896868665#11" to="-52322185#7"/>
    <trip id="37" depart="37.00" from="22803399#1" to="-95807619#7"/>
    <trip id="38" depart="38.00" from="95801178#1" to="101087991#1"/>
    <trip id="39" depart="39.00" from="-306596440#3" to="-306446498#3"/>
    <trip id="40" depart="40.00" from="143231128#0" to="-306865642#14"/>
    <trip id="43" depart="43.00" from="95897180#0" to="131753654#3"/>
    <trip id="44" depart="44.00" from="-151310489#1" to="-131755014#2"/>
    <trip id="45" depart="45.00" from="-161566738#0" to="202864466#1"/>
    <trip id="47" depart="47.00" from="-131838568#0" to="-95801178#0"/>
    <trip id="49" depart="49.00" from="95896934" to="601761837#0"/>
    <trip id="50" depart="50.00" from="-107644000" to="25897691#0"/>
    <trip id="52" depart="52.00" from="-306596440#6" to="210669768#2"/>
    <trip id="53" depart="53.00" from="-161566740" to="-95896938#0"/>
    <trip id="54" depart="54.00" from="-95896947#2" to="95807640#2"/>
    <trip id="55" depart="55.00" from="896868665#10" to="-306865642#4"/>
    <trip id="56" depart="56.00" from="131654720" to="-24394263#2"/>
    <trip id="58" depart="58.00" from="-38078660#0" to="209603948#1"/>
    <trip id="60" depart="60.00" from="28601510" to="131849151"/>
    <trip id="61" depart="61.00" from="306596440#8" to="131838568#1"/>
    <trip id="62" depart="62.00" from="-101087993#0" to="-601761837#0"/>
    <trip id="63" depart="63.00" from="-115782334#2" to="95807610#5"/>
    <trip id="64" depart="64.00" from="896868665#7" to="52313122#10"/>
    <trip id="65" depart="65.00" from="-476127076#1" to="-131838565#7"/>
    <trip id="66" depart="66.00" from="896868665#5" to="95807628#4"/>
    <trip id="67" depart="67.00" from="-141134406#1" to="129146504"/>
    <trip id="68" depart="68.00" from="-131841393#2" to="28530504#2"/>
    <trip id="69" depart="69.00" from="289267159#3" to="-196190059#2"/>
    <trip id="70" depart="70.00" from="105412946#11" to="131876897#0"/>
    <trip id="71" depart="71.00" from="-306596440#3" to="803436833#8"/>
    <trip id="73" depart="73.00" from="131838568#2" to="26356152#1"/>
    <trip id="74" depart="74.00" from="-24402217#3" to="-52322185#0"/>
    <trip id="75" depart="75.00" from="95897174#0" to="22762648#6"/>
    <trip id="76" depart="76.00" from="-95896391#1" to="131838565#0"/>
    <trip id="78" depart="78.00" from="-55687119#2" to="186543382"/>
    <trip id="80" depart="80.00" from="-131841393#6" to="202864466#6"/>
    <trip id="81" depart="81.00" from="-26370271#4" to="95744315#3"/>
    <trip id="82" depart="82.00" from="803436833#12" to="-131841393#6"/>
    <trip id="83" depart="83.00" from="-28448447" to="242083805"/>
    <trip id="85" depart="85.00" from="95807625" to="160839836"/>
    <trip id="86" depart="86.00" from="103736814#2" to="306596442#1"/>
    <trip id="87" depart="87.00" from="35539451" to="-24402215#1"/>
    <trip id="88" depart="88.00" from="-159587729#4" to="-95896427#6"/>
    <trip id="89" depart="89.00" from="-95807628#6" to="105412946#14"/>
    <trip id="91" depart="91.00" from="95896948#0" to="-160671720#0"/>
    <trip id="92" depart="92.00" from="-95807610#1" to="-81139324#1"/>
    <trip id="93" depart="93.00" from="803436833#16" to="-306596440#0"/>
    <trip id="95" depart="95.00" from="-95807628#3" to="-338085757#2"/>
    <trip id="96" depart="96.00" from="-289267159#2" to="95801179#2"/>
    <trip id="98" depart="98.00" from="131876456#0" to="-131838401#1"/>
    <trip id="99" depart="99.00" from="96778122" to="52313122#5"/>
    <trip id="101" depart="101.00" from="52349267#4" to="-23453287#0"/>
    <trip id="102" depart="102.00" from="107852175#4" to="-26370271#0"/>
    <trip id="103" depart="103.00" from="-95802366#1" to="-131838565#9"/>
    <trip id="104" depart="104.00" from="-95744298#3" to="95896947#2"/>
    <trip id="105" depart="105.00" from="-306596440#3" to="306596440#9"/>
    <trip id="109" depart="109.00" from="-202864466#8" to="-476193290#1"/>
    <trip id="110" depart="110.00" from="95896931#1" to="161566738#0"/>
    <trip id="111" depart="111.00" from="131841393#11" to="26370278#1"/>
    <trip id="112" depart="112.00" from="-131838565#4" to="184708616#0"/>
    <trip id="113" depart="113.00" from="131654742#5" to="52349267#0"/>
    <trip id="117" depart="117.00" from="-28007443#0" to="-188153340#2"/>
    <trip id="119" depart="119.00" from="188153325#10" to="202855533#1"/>
    <trip id="120" depart="120.00" from="-95807625" to="179316533#1"/>
    <trip id="121" depart="121.00" from="131755014#5" to="95807619#3"/>
    <trip id="122" depart="122.00" from="-25897653#0" to="25897645#2"/>
    <trip id="123" depart="123.00" from="-28448448#0" to="-95807619#8"/>
    <trip id="124" depart="124.00" from="24394259#1" to="-52313122#10"/>
    <trip id="125" depart="125.00" from="-52313122#2" to="28051329"/>
    <trip id="126" depart="126.00" from="-131849152#1" to="-96778123"/>
    <trip id="127" depart="127.00" from="95897181" to="95897169#4"/>
    <trip id="129" depart="129.00" from="-306596440#3" to="95807619#13"/>
    <trip id="132" depart="132.00" from="52313122#7" to="245232807#3"/>
    <trip id="133" depart="133.00" from="196190056" to="95896947#7"/>
    <trip id="135" depart="135.00" from="42888553#0" to="-52313122#1"/>
    <trip id="136" depart="136.00" from="23453287#4" to="95807620#1"/>
    <trip id="137" depart="137.00" from="-196190059#10" to="-188153325#3"/>
    <trip id="138" depart="138.00" from="-161382758" to="141134406#1"/>
    <trip id="140" depart="140.00" from="25897645#1" to="-26356144"/>
    <trip id="142" depart="142.00" from="115782334#0" to="95744315#3"/>
    <trip id="144" depart="144.00" from="-95807628#6" to="-320725490"/>
    <trip id="145" depart="145.00" from="-105412946#0" to="290585784#1"/>
    <trip id="147" depart="147.00" from="26370273#1" to="138505352"/>
    <trip id="148" depart="148.00" from="-95807637" to="-105412946#6"/>
    <trip id="149" depart="149.00" from="-131876456#2" to="896862869#2"/>
    <trip id="150" depart="150.00" from="95799600#10" to="131876457#4"/>
    <trip id="151" depart="151.00" from="52313122#9" to="161591556#1"/>
    <trip id="152" depart="152.00" from="-202855821#6" to="-196190059#11"/>
    <trip id="153" depart="153.00" from="-476127082#0" to="95744295#1"/>
    <trip id="154" depart="154.00" from="307201482#4" to="601761837#0"/>
    <trip id="155" depart="155.00" from="95744315#0" to="-26356212#0"/>
    <trip id="156" depart="156.00" from="-289267159#1" to="-160839871#2"/>
    <trip id="157" depart="157.00" from="306596442#1" to="896868665#1"/>
    <trip id="158" depart="158.00" from="-95807613" to="202855821#1"/>
    <trip id="160" depart="160.00" from="803436833#6" to="95896933"/>
    <trip id="161" depart="161.00" from="38078660#2" to="881599809#0"/>
    <trip id="163" depart="163.00" from="-52349260#1" to="95807619#0"/>
    <trip id="164" depart="164.00" from="338085757#2" to="728843364#0"/>
    <trip id="165" depart="165.00" from="38078660#2" to="-306865643#0"/>
    <trip id="166" depart="166.00" from="306865642#14" to="-176934263"/>
    <trip id="168" depart="168.00" from="-26356212#1" to="38078663#1"/>
    <trip id="169" depart="169.00" from="-95896953" to="-52313122#7"/>
    <trip id="170" depart="170.00" from="307201482#2" to="-28448460#0"/>
    <trip id="172" depart="172.00" from="-52322185#2" to="728843364#2"/>
    <trip id="173" depart="173.00" from="95896427#7" to="-344874635#0"/>
    <trip id="174" depart="174.00" from="210669768#2" to="-95807620#5"/>
    <trip id="175" depart="175.00" from="95896947#5" to="131841393#5"/>
    <trip id="176" depart="176.00" from="95807628#5" to="-188153325#3"/>
    <trip id="177" depart="177.00" from="95896933" to="-24394263#1"/>
    <trip id="178" depart="178.00" from="95896414#1" to="-306865642#7"/>
    <trip id="179" depart="179.00" from="-161466421#0" to="-95896938#0"/>
    <trip id="182" depart="182.00" from="-95799600#0" to="161387380"/>
    <trip id="183" depart="183.00" from="-290773138#1" to="245232810#2"/>
    <trip id="184" depart="184.00" from="-101088002" to="95802366#1"/>
    <trip id="185" depart="185.00" from="131838568#1" to="25897658#3"/>
    <trip id="187" depart="187.00" from="-896868665#7" to="-131841393#4"/>
    <trip id="188" depart="188.00" from="23453287#6" to="-803436833#15"/>
    <trip id="189" depart="189.00" from="-52313122#12" to="52322186"/>
    <trip id="192" depart="192.00" from="-95807610#0" to="-476127109"/>
    <trip id="193" depart="193.00" from="-188153340#1" to="-95895219#7"/>
    <trip id="194" depart="194.00" from="95807628#7" to="24394272#1"/>
    <trip id="195" depart="195.00" from="95799600#0" to="196190059#8"/>
    <trip id="196" depart="196.00" from="-38078660#4" to="131876460#0"/>
    <trip id="197" depart="197.00" from="-101087991#1" to="-38078660#4"/>
    <trip id="198" depart="198.00" from="-95807641#0" to="161566739"/>
    <trip id="199" depart="199.00" from="22803388" to="105412946#10"/>
    <trip id="200" depart="200.00" from="-95896413" to="-26370271#0"/>
    <trip id="201" depart="201.00" from="105412946#0" to="95744295#5"/>
    <trip id="202" depart="202.00" from="307201482#4" to="-23453287#5"/>
    <trip id="203" depart="203.00" from="-141134406#0" to="131838401#0"/>
    <trip id="207" depart="207.00" from="-24402216#1" to="-131654695#0"/>
    <trip id="208" depart="208.00" from="-28530504#3" to="107852175#3"/>
    <trip id="209" depart="209.00" from="55687119#1" to="-131849152#2"/>
    <trip id="210" depart="210.00" from="-95807620#0" to="202864466#4"/>
    <trip id="212" depart="212.00" from="131654693#2" to="-292330787#1"/>
    <trip id="213" depart="213.00" from="22803399#2" to="-105412946#12"/>
    <trip id="215" depart="215.00" from="-161254538" to="-95896397#1"/>
    <trip id="217" depart="217.00" from="131753654#3" to="-131838401#0"/>
    <trip id="218" depart="218.00" from="-289267159#1" to="52322186"/>
    <trip id="219" depart="219.00" from="-95896947#8" to="307201482#5"/>
    <trip id="221" depart="221.00" from="188153325#3" to="95807629"/>
    <trip id="222" depart="222.00" from="95744295#1" to="196190059#12"/>
    <trip id="223" depart="223.00" from="25897658#0" to="131753599#0"/>
    <trip id="224" depart="224.00" from="52313122#14" to="131876460#0"/>
    <trip id="225" depart="225.00" from="95744306" to="26370272#0"/>
    <trip id="226" depart="226.00" from="105412946#10" to="-306865638#3"/>
    <trip id="228" depart="228.00" from="289267159#3" to="131838565#2"/>
    <trip id="229" depart="229.00" from="202855821#6" to="-307201482#6"/>
    <trip id="230" depart="230.00" from="-131876457#3" to="-38078660#2"/>
    <trip id="231" depart="231.00" from="-306596445#1" to="-52349267#1"/>
    <trip id="233" depart="233.00" from="-26370273#3" to="245232797#0"/>
    <trip id="234" depart="234.00" from="245232807#5" to="-131838568#2"/>
    <trip id="235" depart="235.00" from="-95807619#10" to="131876456#2"/>
    <trip id="238" depart="238.00" from="161566741#0" to="245232797#5"/>
    <trip id="239" depart="239.00" from="728843364#0" to="289267158"/>
    <trip id="240" depart="240.00" from="-95744305#0" to="-105412946#12"/>
    <trip id="242" depart="242.00" from="589913464#0" to="95807640#2"/>
    <trip id="243" depart="243.00" from="-95807625" to="26370278#0"/>
    <trip id="244" depart="244.00" from="131841393#8" to="196190040#2"/>
    <trip id="245" depart="245.00" from="-26356160#0" to="-26370278#0"/>
    <trip id="247" depart="247.00" from="-52349267#3" to="24394273#1"/>
    <trip id="248" depart="248.00" from="-95807610#5" to="-22762648#9"/>
    <trip id="249" depart="249.00" from="-95897179" to="-196190059#12"/>
    <trip id="250" depart="250.00" from="202855821#0" to="-131654696#2"/>
    <trip id="251" depart="251.00" from="-95801160#1" to="159587729#3"/>
    <trip id="255" depart="255.00" from="-26356128#1" to="-803436833#1"/>
    <trip id="259" depart="259.00" from="-115782334#2" to="131849151"/>
    <trip id="260" depart="260.00" from="96778123" to="-896868667"/>
    <trip id="261" depart="261.00" from="22762648#6" to="306596440#4"/>
    <trip id="262" depart="262.00" from="22762648#9" to="28448448#0"/>
    <trip id="264" depart="264.00" from="-115782335#1" to="-209603948#0"/>
    <trip id="265" depart="265.00" from="-188153325#8" to="242935614"/>
    <trip id="266" depart="266.00" from="146581704#1" to="-26370273#2"/>
    <trip id="267" depart="267.00" from="245232805" to="289267159#1"/>
    <trip id="268" depart="268.00" from="-218396661#1" to="196190046#0"/>
    <trip id="269" depart="269.00" from="28007444" to="-188153325#10"/>
    <trip id="270" depart="270.00" from="42888553#4" to="95896391#6"/>
    <trip id="271" depart="271.00" from="-161466421#0" to="-131654696#0"/>
    <trip id="272" depart="272.00" from="-490385330" to="24394272#1"/>
    <trip id="274" depart="274.00" from="25192079#1" to="-131876457#0"/>
    <trip id="276" depart="276.00" from="-160671720#3" to="290773138#1"/>
    <trip id="277" depart="277.00" from="55687119#2" to="196002127"/>
    <trip id="278" depart="278.00" from="-188153281" to="95896947#0"/>
    <trip id="279" depart="279.00" from="306865638#2" to="-896868666#0"/>
    <trip id="280" depart="280.00" from="-95807638" to="-95799600#0"/>
    <trip id="282" depart="282.00" from="55687119#0" to="42888553#3"/>
    <trip id="284" depart="284.00" from="208654765#2" to="476193290#1"/>
    <trip id="285" depart="285.00" from="245232807#7" to="-95896939"/>
    <trip id="286" depart="286.00" from="26356212#0" to="95896391#7"/>
    <trip id="287" depart="287.00" from="-306596443#0" to="34515146"/>
    <trip id="288" depart="288.00" from="131838568#0" to="1194894"/>
    <trip id="290" depart="290.00" from="-306596440#9" to="52349261#1"/>
    <trip id="291" depart="291.00" from="52313122#15" to="-146581704#0"/>
    <trip id="293" depart="293.00" from="-95897169#5" to="196190057"/>
    <trip id="294" depart="294.00" from="-95744298#3" to="-131654719#1"/>
    <trip id="295" depart="295.00" from="55687120" to="-24394270"/>
    <trip id="296" depart="296.00" from="-26356128#1" to="307192473#2"/>
    <trip id="297" depart="297.00" from="-601761837#1" to="857807375#0"/>
    <trip id="298" depart="298.00" from="245232806#2" to="-307201483#1"/>
    <trip id="299" depart="299.00" from="-105412946#7" to="95807628#6"/>
    <trip id="300" depart="300.00" from="-141134406#1" to="25897682"/>
    <trip id="301" depart="301.00" from="115782334#0" to="28448460#3"/>
    <trip id="303" depart="303.00" from="128405696" to="306865642#2"/>
    <trip id="304" depart="304.00" from="-151313900#3" to="-28007432"/>
    <trip id="306" depart="306.00" from="161292901#0" to="107644001#1"/>
    <trip id="307" depart="307.00" from="131838565#4" to="-95896397#1"/>
    <trip id="308" depart="308.00" from="28007430" to="-803436833#16"/>
    <trip id="309" depart="309.00" from="245232806#5" to="-307201482#0"/>
    <trip id="311" depart="311.00" from="-24394273#1" to="-188153340#2"/>
    <trip id="312" depart="312.00" from="131838566#5" to="28530508"/>
    <trip id="314" depart="314.00" from="107852175#1" to="26356128#1"/>
    <trip id="315" depart="315.00" from="95896943" to="131838565#9"/>
    <trip id="316" depart="316.00" from="-307192473#0" to="-160833412"/>
    <trip id="317" depart="317.00" from="-24402207#1" to="-28448460#0"/>
    <trip id="318" depart="318.00" from="-23453287#5" to="-107852175#1"/>
    <trip id="319" depart="319.00" from="131838566#2" to="-307201482#6"/>
    <trip id="320" depart="320.00" from="95896940#1" to="141134406#1"/>
    <trip id="321" depart="321.00" from="245232797#5" to="-196190059#1"/>
    <trip id="326" depart="326.00" from="95807628#8" to="110931470#1"/>
    <trip id="327" depart="327.00" from="476127082#0" to="-95807621#1"/>
    <trip id="328" depart="328.00" from="-131876456#0" to="202864466#3"/>
    <trip id="329" depart="329.00" from="-131838565#10" to="-208654765#3"/>
    <trip id="330" depart="330.00" from="143231128#3" to="-52313122#4"/>
    <trip id="334" depart="334.00" from="131755014#5" to="-95897168#3"/>
    <trip id="335" depart="335.00" from="-95896414#1" to="601761836"/>
    <trip id="336" depart="336.00" from="95897168#0" to="-52313122#7"/>
    <trip id="337" depart="337.00" from="202855533#1" to="196190054"/>
    <trip id="338" depart="338.00" from="26370271#4" to="95807628#5"/>
    <trip id="339" depart="339.00" from="-25897682" to="-26356212#2"/>
    <trip id="340" depart="340.00" from="23453287#0" to="-218185019"/>
    <trip id="341" depart="341.00" from="-22762648#7" to="-131876456#2"/>
    <trip id="342" depart="342.00" from="-103736814#1" to="-95897168#3"/>
    <trip id="343" depart="343.00" from="188153325#0" to="-42888553#4"/>
    <trip id="344" depart="344.00" from="-26370273#3" to="245232808#2"/>
    <trip id="345" depart="345.00" from="245232806#5" to="-95897174#0"/>
    <trip id="347" depart="347.00" from="306865642#14" to="202855821#6"/>
    <trip id="348" depart="348.00" from="23453287#1" to="95807619#13"/>
    <trip id="349" depart="349.00" from="-95807629" to="131876457#3"/>
    <trip id="350" depart="350.00" from="22762648#10" to="95799600#1"/>
    <trip id="351" depart="351.00" from="503869257#1" to="-131841393#8"/>
    <trip id="353" depart="353.00" from="28448418" to="160671720#3"/>
    <trip id="354" depart="354.00" from="-307201482#5" to="-196190044#5"/>
    <trip id="356" depart="356.00" from="95807633#1" to="131655426#5"/>
    <trip id="357" depart="357.00" from="131654693#1" to="-131876460#1"/>
    <trip id="358" depart="358.00" from="-131655428#0" to="-95896427#8"/>
    <trip id="359" depart="359.00" from="-52318788#1" to="-306596440#3"/>
    <trip id="363" depart="363.00" from="24394263#0" to="-307192473#2"/>
    <trip id="364" depart="364.00" from="-131655428#1" to="28448451#1"/>
    <trip id="365" depart="365.00" from="101334762#0" to="22762648#9"/>
    <trip id="366" depart="366.00" from="95801189#1" to="-24394270"/>
    <trip id="367" depart="367.00" from="161591556#0" to="208654765#2"/>
    <trip id="369" depart="369.00" from="-803436833#2" to="-803436833#5"/>
    <trip id="370" depart="370.00" from="24394258" to="55690748"/>
    <trip id="371" depart="371.00" from="-52322185#7" to="245232795#2"/>
    <trip id="372" depart="372.00" from="-307201482#5" to="95807628#1"/>
    <trip id="373" depart="373.00" from="38078663#2" to="131876897#1"/>
    <trip id="374" depart="374.00" from="-95896947#5" to="-52322185#7"/>
    <trip id="375" depart="375.00" from="-52318788#2" to="95896427#3"/>
    <trip id="376" depart="376.00" from="-95807610#4" to="131755114#0"/>
    <trip id="377" depart="377.00" from="95896953" to="22803399#5"/>
    <trip id="378" depart="378.00" from="131841393#11" to="-95807641#1"/>
    <trip id="379" depart="379.00" from="-24394260" to="-95744298#1"/>
    <trip id="380" depart="380.00" from="28448548" to="202855821#7"/>
    <trip id="381" depart="381.00" from="28530580" to="-26356128#2"/>
    <trip id="382" depart="382.00" from="131849152#2" to="95807610#1"/>
    <trip id="383" depart="383.00" from="-95896391#1" to="245232806#0"/>
    <trip id="384" depart="384.00" from="-188153281" to="95896493#0"/>
    <trip id="385" depart="385.00" from="196190044#6" to="-289267159#4"/>
    <trip id="386" depart="386.00" from="-208654765#3" to="131881078#1"/>
    <trip id="387" depart="387.00" from="131876457#0" to="-159587729#0"/>
    <trip id="388" depart="388.00" from="95897169#0" to="95799600#9"/>
    <trip id="390" depart="390.00" from="52313122#4" to="131655426#12"/>
    <trip id="391" depart="391.00" from="25192079#4" to="131753654#2"/>
    <trip id="392" depart="392.00" from="-306865638#2" to="52313122#2"/>
    <trip id="393" depart="393.00" from="95896947#2" to="-292330787#0"/>
    <trip id="394" depart="394.00" from="131876456#1" to="-95802366#0"/>
    <trip id="395" depart="395.00" from="95807612#1" to="131753654#1"/>
    <trip id="396" depart="396.00" from="896868666#0" to="728843364#0"/>
    <trip id="397" depart="397.00" from="-306865642#12" to="306865642#1"/>
    <trip id="398" depart="398.00" from="-95807620#1" to="95807619#2"/>
    <trip id="399" depart="399.00" from="131655426#2" to="42888553#0"/>
    <trip id="400" depart="400.00" from="-307192473#0" to="-502997677"/>
    <trip id="401" depart="401.00" from="176934263" to="95897174#2"/>
    <trip id="403" depart="403.00" from="131838568#1" to="-896868665#2"/>
    <trip id="404" depart="404.00" from="131876457#0" to="131876457#0"/>
    <trip id="405" depart="405.00" from="-95896947#6" to="-55687119#0"/>
    <trip id="407" depart="407.00" from="159587729#3" to="-28530580"/>
    <trip id="408" depart="408.00" from="306596440#2" to="-131753654#0"/>
    <trip id="409" depart="409.00" from="26370278#2" to="245232807#7"/>
    <trip id="410" depart="410.00" from="38078660#3" to="-95807610#1"/>
    <trip id="411" depart="411.00" from="23453287#5" to="42888553#0"/>
    <trip id="412" depart="412.00" from="95896947#4" to="131654787#1"/>
    <trip id="413" depart="413.00" from="-131655426#7" to="131655426#9"/>
    <trip id="414" depart="414.00" from="186533894#0" to="803436833#16"/>
    <trip id="415" depart="415.00" from="896862869#2" to="-95896947#5"/>
    <trip id="416" depart="416.00" from="131838565#0" to="-95897180#1"/>
    <trip id="417" depart="417.00" from="25897877#0" to="-95807636#2"/>
    <trip id="418" depart="418.00" from="22803388" to="-210669768#0"/>
    <trip id="420" depart="420.00" from="-55687119#2" to="245232795#0"/>
    <trip id="421" depart="421.00" from="22762648#5" to="52349261#1"/>
    <trip id="422" depart="422.00" from="55690749" to="589913464#0"/>
    <trip id="424" depart="424.00" from="25897653#1" to="28448548"/>
    <trip id="425" depart="425.00" from="857807375#0" to="-131655426#6"/>
    <trip id="426" depart="426.00" from="-131841393#13" to="202864466#6"/>
    <trip id="427" depart="427.00" from="95807610#4" to="95897174#0"/>
    <trip id="429" depart="429.00" from="-159587729#8" to="208654765#0"/>
    <trip id="430" depart="430.00" from="857807375#2" to="-95896948#1"/>
    <trip id="431" depart="431.00" from="245232795#0" to="95744305#0"/>
    <trip id="432" depart="432.00" from="-131753654#3" to="306865642#9"/>
    <trip id="434" depart="434.00" from="-202855821#2" to="131838568#4"/>
    <trip id="435" depart="435.00" from="151310489#0" to="306865642#14"/>
    <trip id="437" depart="437.00" from="81139324#2" to="202855820"/>
    <trip id="438" depart="438.00" from="-28448451#1" to="95799600#9"/>
    <trip id="439" depart="439.00" from="-202855821#0" to="101334760"/>
    <trip id="440" depart="440.00" from="-290773138#0" to="-306596443#0"/>
    <trip id="441" depart="441.00" from="-105412946#6" to="320725490"/>
    <trip id="442" depart="442.00" from="95744315#5" to="24394272#2"/>
    <trip id="443" depart="443.00" from="-208654765#3" to="-95896947#7"/>
    <trip id="444" depart="444.00" from="-803436833#12" to="186533901#1"/>
    <trip id="446" depart="446.00" from="-289267159#2" to="52322185#1"/>
    <trip id="447" depart="447.00" from="-24402216#2" to="-95803326"/>
    <trip id="448" depart="448.00" from="107850850" to="-289267159#0"/>
    <trip id="449" depart="449.00" from="159587729#4" to="161254538"/>
    <trip id="450" depart="450.00" from="95897169#2" to="-476127082#1"/>
    <trip id="451" depart="451.00" from="95896945" to="22803399#6"/>
    <trip id="452" depart="452.00" from="-306865641#0" to="159587729#7"/>
    <trip id="455" depart="455.00" from="131654695#4" to="95744305#1"/>
    <trip id="456" depart="456.00" from="-307201482#1" to="307192473#4"/>
    <trip id="458" depart="458.00" from="208654765#4" to="202855821#1"/>
    <trip id="459" depart="459.00" from="24394272#1" to="25897691#0"/>
    <trip id="460" depart="460.00" from="22803399#7" to="52318780#0"/>
    <trip id="461" depart="461.00" from="202855821#9" to="95744305#0"/>
    <trip id="462" depart="462.00" from="226076436#1" to="-52322183#0"/>
    <trip id="463" depart="463.00" from="-95896397#1" to="161566738#1"/>
    <trip id="464" depart="464.00" from="26356169" to="-151313900#1"/>
    <trip id="467" depart="467.00" from="131838568#4" to="95896427#6"/>
    <trip id="468" depart="468.00" from="131838565#4" to="95799604#0"/>
    <trip id="469" depart="469.00" from="52313122#14" to="-306596445#1"/>
    <trip id="470" depart="470.00" from="476193290#1" to="115782335#0"/>
    <trip id="471" depart="471.00" from="34705972#2" to="26370277#1"/>
    <trip id="472" depart="472.00" from="-589913464#0" to="-188153325#3"/>
    <trip id="473" depart="473.00" from="95896414#2" to="-202855821#9"/>
    <trip id="474" depart="474.00" from="95896427#7" to="601761836"/>
    <trip id="475" depart="475.00" from="26356128#0" to="95896941#1"/>
    <trip id="476" depart="476.00" from="95896427#8" to="320725490"/>
    <trip id="477" depart="477.00" from="-896868666#2" to="306865642#10"/>
    <trip id="478" depart="478.00" from="-107852175#1" to="131841393#6"/>
    <trip id="479" depart="479.00" from="-95896947#5" to="24394260"/>
    <trip id="480" depart="480.00" from="24394263#0" to="184708616#0"/>
    <trip id="481" depart="481.00" from="476127082#0" to="95807620#4"/>
    <trip id="482" depart="482.00" from="-161466421#0" to="-28530580"/>
    <trip id="484" depart="484.00" from="143231128#0" to="95799609"/>
    <trip id="485" depart="485.00" from="-26356160#1" to="-131838568#0"/>
    <trip id="486" depart="486.00" from="476127098" to="95799600#2"/>
    <trip id="487" depart="487.00" from="-38078663#1" to="-95807633#1"/>
    <trip id="489" depart="489.00" from="-42888553#2" to="131654742#0"/>
    <trip id="490" depart="490.00" from="-159587729#6" to="896868665#7"/>
    <trip id="492" depart="492.00" from="24394258" to="26370271#4"/>
    <trip id="493" depart="493.00" from="95807640#2" to="-95895219#5"/>
    <trip id="494" depart="494.00" from="26370273#3" to="-210669768#0"/>
    <trip id="495" depart="495.00" from="-95807620#1" to="-160671720#1"/>
    <trip id="496" depart="496.00" from="115782334#1" to="-95807633#0"/>
    <trip id="497" depart="497.00" from="95895219#1" to="-131655247#0"/>
    <trip id="499" depart="499.00" from="95807649#1" to="55687119#0"/>
    <trip id="500" depart="500.00" from="-159589367" to="24402216#1"/>
    <trip id="501" depart="501.00" from="131841393#4" to="95896938#2"/>
    <trip id="502" depart="502.00" from="-881599809#1" to="-95807620#2"/>
    <trip id="505" depart="505.00" from="23453287#3" to="210669768#4"/>
    <trip id="507" depart="507.00" from="306865642#12" to="-292330787#0"/>
    <trip id="508" depart="508.00" from="-188153325#8" to="159587729#3"/>
    <trip id="509" depart="509.00" from="-131841393#13" to="289267156#1"/>
    <trip id="510" depart="510.00" from="-25897658#3" to="-26370271#4"/>
    <trip id="511" depart="511.00" from="81139324#0" to="-803436833#12"/>