<?xml version="1.0" encoding="UTF-8"?>

<!-- generated on 02/07/21 13:41:48 by Eclipse SUMO netconvert Version 1.7.0
<configuration xmlns:xsi="http://www.w3.org/2001/XMLSchema-instance" xsi:noNamespaceSchemaLocation="http://sumo.dlr.de/xsd/netconvertConfiguration.xsd">

    <input>
        <node-files value="int.nod.xml"/>
        <edge-files value="int.edg.xml"/>
    </input>

    <output>
        <output-file value="int.net.xml"/>
    </output>

    <report>
        <aggregate-warnings value="5"/>
    </report>

</configuration>
-->

<net version="1.6" junctionCornerDetail="5" limitTurnSpeed="5.50" xmlns:xsi="http://www.w3.org/2001/XMLSchema-instance" xsi:noNamespaceSchemaLocation="http://sumo.dlr.de/xsd/net_file.xsd">

    <location netOffset="200.00,400.00" convBoundary="0.00,0.00,400.00,400.00" origBoundary="-200.00,-400.00,200.00,0.00" projParameter="!"/>

    <edge id="e1" from="1" to="2" priority="-1">
        <lane id="e1_0" index="0" speed="14.00" length="400.00" shape="192.00,400.00 192.00,0.00"/>
        <lane id="e1_1" index="1" speed="14.00" length="400.00" shape="195.20,400.00 195.20,0.00"/>
        <lane id="e1_2" index="2" speed="14.00" length="400.00" shape="198.40,400.00 198.40,0.00"/>
    </edge>
    <edge id="e2" from="3" to="4" priority="-1">
        <lane id="e2_0" index="0" speed="14.00" length="400.00" shape="0.00,192.00 400.00,192.00"/>
        <lane id="e2_1" index="1" speed="14.00" length="400.00" shape="0.00,195.20 400.00,195.20"/>
        <lane id="e2_2" index="2" speed="14.00" length="400.00" shape="0.00,198.40 400.00,198.40"/>
    </edge>

    <junction id="1" type="dead_end" x="200.00" y="400.00" incLanes="" intLanes="" shape="200.00,400.00 190.40,400.00"/>
    <junction id="2" type="dead_end" x="200.00" y="0.00" incLanes="e1_0 e1_1 e1_2" intLanes="" shape="190.40,0.00 200.00,0.00"/>
    <junction id="3" type="dead_end" x="0.00" y="200.00" incLanes="" intLanes="" shape="0.00,200.00 0.00,190.40"/>
    <junction id="4" type="dead_end" x="400.00" y="200.00" incLanes="e2_0 e2_1 e2_2" intLanes="" shape="400.00,190.40 400.00,200.00"/>

</net>
