<?xml version="1.0" encoding="UTF-8"?>

<!-- generated on 02/07/21 14:41:23 by Eclipse SUMO netedit Version 1.7.0
<configuration xmlns:xsi="http://www.w3.org/2001/XMLSchema-instance" xsi:noNamespaceSchemaLocation="http://sumo.dlr.de/xsd/netconvertConfiguration.xsd">

    <input>
        <sumo-net-file value="C:\Users\Caolan\Desktop\Final%20Year%20Project\Simulations\Sim1\int.net.xml"/>
    </input>

    <output>
        <output-file value="C:\Users\Caolan\Desktop\Final%20Year%20Project\Simulations\Sim1\int2.net.xml"/>
    </output>

    <processing>
        <geometry.min-radius.fix.railways value="false"/>
        <geometry.max-grade.fix value="false"/>
        <offset.disable-normalization value="true"/>
        <lefthand value="false"/>
    </processing>

    <junctions>
        <no-internal-links value="true"/>
        <no-turnarounds value="true"/>
        <junctions.corner-detail value="5"/>
        <junctions.limit-turn-speed value="5.5"/>
        <rectangular-lane-cut value="false"/>
    </junctions>

    <pedestrian>
        <walkingareas value="false"/>
    </pedestrian>

    <report>
        <aggregate-warnings value="5"/>
    </report>

</configuration>
-->

<net version="1.6" junctionCornerDetail="5" limitTurnSpeed="5.50" xmlns:xsi="http://www.w3.org/2001/XMLSchema-instance" xsi:noNamespaceSchemaLocation="http://sumo.dlr.de/xsd/net_file.xsd">

    <location netOffset="200.00,400.00" convBoundary="-208.39,0.00,400.00,510.65" origBoundary="-200.00,-400.00,200.00,0.00" projParameter="!"/>

    <edge id="-e1" from="2" to="gneJ11" priority="-1" type="internal">
        <lane id="-e1_0" index="0" speed="14.00" length="206.76" shape="204.80,0.00 204.80,206.76"/>
        <lane id="-e1_1" index="1" speed="14.00" length="206.76" shape="201.60,0.00 201.60,206.76"/>
    </edge>
    <edge id="-e1.206" from="gneJ11" to="1" priority="-1" type="internal">
        <lane id="-e1.206_0" index="0" speed="14.00" length="193.24" shape="204.80,206.76 204.80,400.00"/>
        <lane id="-e1.206_1" index="1" speed="14.00" length="193.24" shape="201.60,206.76 201.60,400.00"/>
    </edge>
    <edge id="-e2" from="4" to="gneJ12" priority="-1" type="internal">
        <lane id="-e2_0" index="0" speed="14.00" length="206.98" shape="400.00,204.80 193.02,204.80"/>
        <lane id="-e2_1" index="1" speed="14.00" length="206.98" shape="400.00,201.60 193.02,201.60"/>
    </edge>
    <edge id="-e2.206" from="gneJ12" to="3" priority="-1" type="internal">
        <lane id="-e2.206_0" index="0" speed="14.00" length="193.02" shape="193.02,204.80 0.00,204.80"/>
        <lane id="-e2.206_1" index="1" speed="14.00" length="193.02" shape="193.02,201.60 0.00,201.60"/>
    </edge>
    <edge id="e1" from="1" to="gneJ10" priority="-1" type="internal">
        <lane id="e1_0" index="0" speed="14.00" length="206.24" shape="195.20,400.00 195.20,193.76"/>
        <lane id="e1_1" index="1" speed="14.00" length="206.24" shape="198.40,400.00 198.40,193.76"/>
    </edge>
    <edge id="e1.206" from="gneJ10" to="2" priority="-1" type="internal">
        <lane id="e1.206_0" index="0" speed="14.00" length="193.76" shape="195.20,193.76 195.20,0.00"/>
        <lane id="e1.206_1" index="1" speed="14.00" length="193.76" shape="198.40,193.76 198.40,0.00"/>
    </edge>
    <edge id="e2" from="3" to="gneJ13" priority="-1" type="internal">
        <lane id="e2_0" index="0" speed="14.00" length="206.95" shape="0.00,195.20 206.95,195.20"/>
        <lane id="e2_1" index="1" speed="14.00" length="206.95" shape="0.00,198.40 206.95,198.40"/>
    </edge>
    <edge id="e2.206" from="gneJ13" to="4" priority="-1" type="internal">
        <lane id="e2.206_0" index="0" speed="14.00" length="193.05" shape="206.95,195.20 400.00,195.20"/>
        <lane id="e2.206_1" index="1" speed="14.00" length="193.05" shape="206.95,198.40 400.00,198.40"/>
    </edge>
    <edge id="gneE0" from="gneJ0" to="gneJ1" priority="-1">
        <lane id="gneE0_0" index="0" speed="13.89" length="168.44" shape="-100.79,510.65 -100.79,342.21"/>
    </edge>
    <edge id="gneE1" from="gneJ2" to="gneJ3" priority="-1">
        <lane id="gneE1_0" index="0" speed="13.89" length="197.48" shape="-208.39,419.60 -10.91,419.60"/>
    </edge>

    <junction id="1" type="dead_end" x="200.00" y="400.00" incLanes="-e1.206_0 -e1.206_1" intLanes="" shape="200.00,400.00 206.40,400.00 200.00,400.00"/>
    <junction id="2" type="dead_end" x="200.00" y="0.00" incLanes="e1.206_0 e1.206_1" intLanes="" shape="200.00,0.00 193.60,0.00 200.00,0.00"/>
    <junction id="3" type="dead_end" x="0.00" y="200.00" incLanes="-e2.206_0 -e2.206_1" intLanes="" shape="0.00,200.00 0.00,206.40 0.00,200.00"/>
    <junction id="4" type="dead_end" x="400.00" y="200.00" incLanes="e2.206_0 e2.206_1" intLanes="" shape="400.00,200.00 400.00,193.60 400.00,200.00"/>
    <junction id="gneJ0" type="dead_end" x="-99.19" y="510.65" incLanes="" intLanes="" shape="-99.19,510.65 -102.39,510.65"/>
    <junction id="gneJ1" type="dead_end" x="-99.19" y="342.21" incLanes="gneE0_0" intLanes="" shape="-102.39,342.21 -99.19,342.21"/>
    <junction id="gneJ10" type="priority" x="200.00" y="193.76" incLanes="e1_0 e1_1" intLanes="" shape="193.60,193.76 200.00,193.76 193.60,193.76">
        <request index="0" response="00" foes="00"/>
        <request index="1" response="00" foes="00"/>
    </junction>
    <junction id="gneJ11" type="priority" x="200.00" y="206.76" incLanes="-e1_0 -e1_1" intLanes="" shape="200.00,206.76 206.40,206.76 200.00,206.76">
        <request index="0" response="00" foes="00"/>
        <request index="1" response="00" foes="00"/>
    </junction>
    <junction id="gneJ12" type="priority" x="193.02" y="200.00" incLanes="-e2_0 -e2_1" intLanes="" shape="193.02,206.40 193.02,200.00 193.02,206.40">
        <request index="0" response="00" foes="00"/>
        <request index="1" response="00" foes="00"/>
    </junction>
    <junction id="gneJ13" type="priority" x="206.95" y="200.00" incLanes="e2_0 e2_1" intLanes="" shape="206.95,200.00 206.95,193.60 206.95,200.00">
        <request index="0" response="00" foes="00"/>
        <request index="1" response="00" foes="00"/>
    </junction>
    <junction id="gneJ2" type="dead_end" x="-208.39" y="421.20" incLanes="" intLanes="" shape="-208.39,421.20 -208.39,418.00"/>
    <junction id="gneJ3" type="dead_end" x="-10.91" y="421.20" incLanes="gneE1_0" intLanes="" shape="-10.91,418.00 -10.91,421.20"/>

    <connection from="-e1" to="-e1.206" fromLane="0" toLane="0" dir="s" state="M"/>
    <connection from="-e1" to="-e1.206" fromLane="1" toLane="1" dir="s" state="M"/>
    <connection from="-e2" to="-e2.206" fromLane="0" toLane="0" dir="s" state="M"/>
    <connection from="-e2" to="-e2.206" fromLane="1" toLane="1" dir="s" state="M"/>
    <connection from="e1" to="e1.206" fromLane="0" toLane="0" dir="s" state="M"/>
    <connection from="e1" to="e1.206" fromLane="1" toLane="1" dir="s" state="M"/>
    <connection from="e2" to="e2.206" fromLane="0" toLane="0" dir="s" state="M"/>
    <connection from="e2" to="e2.206" fromLane="1" toLane="1" dir="s" state="M"/>

</net>
