<?xml version="1.0" encoding="UTF-8"?>

<!-- generated on 02/22/21 13:59:06 by Eclipse SUMO duarouter Version 1.7.0
<configuration xmlns:xsi="http://www.w3.org/2001/XMLSchema-instance" xsi:noNamespaceSchemaLocation="http://sumo.dlr.de/xsd/duarouterConfiguration.xsd">

    <input>
        <net-file value="def.net.xml"/>
        <route-files value="def.trips.xml"/>
    </input>

    <output>
        <output-file value="def.rou.xml"/>
        <alternatives-output value="def.rou.alt.xml"/>
    </output>

    <report>
        <ignore-errors value="true"/>
    </report>

</configuration>
-->

<routes xmlns:xsi="http://www.w3.org/2001/XMLSchema-instance" xsi:noNamespaceSchemaLocation="http://sumo.dlr.de/xsd/routes_file.xsd">
    <vType id="CAV" vClass="passenger" guiShape="passenger" minGap="1" tau="0.5" sigma="0.5" speedDev="0.05" carFollowModel="IDM" probability="1"/>
    <vehicle id="1" type="CAV" depart="1.00">
        <route edges="-gneE5 -gneE2"/>
    </vehicle>
    <vehicle id="2" type="CAV" depart="2.00">
        <route edges="gneE2 gneE4"/>
    </vehicle>
    <vehicle id="3" type="CAV" depart="3.00">
        <route edges="gneE3 -gneE2"/>
    </vehicle>
    <vehicle id="4" type="CAV" depart="4.00">
        <route edges="-gneE5 -gneE2"/>
    </vehicle>
    <vehicle id="6" type="CAV" depart="6.00">
        <route edges="-gneE4 -gneE2"/>
    </vehicle>
    <vehicle id="7" type="CAV" depart="7.00">
        <route edges="gneE2 gneE4"/>
    </vehicle>
    <vehicle id="9" type="CAV" depart="9.00">
        <route edges="gneE3 -gneE2"/>
    </vehicle>
    <vehicle id="10" type="CAV" depart="10.00">
        <route edges="gneE3 gneE4"/>
    </vehicle>
    <vehicle id="11" type="CAV" depart="11.00">
        <route edges="-gneE5 -gneE2"/>
    </vehicle>
    <vehicle id="13" type="CAV" depart="13.00">
        <route edges="-gneE4 -gneE2"/>
    </vehicle>
    <vehicle id="14" type="CAV" depart="14.00">
        <route edges="gneE3 gneE4"/>
    </vehicle>
    <vehicle id="15" type="CAV" depart="15.00">
        <route edges="gneE3 gneE4"/>
    </vehicle>
    <vehicle id="16" type="CAV" depart="16.00">
        <route edges="gneE2 gneE5"/>
    </vehicle>
    <vehicle id="17" type="CAV" depart="17.00">
        <route edges="-gneE5 gneE4"/>
    </vehicle>
    <vehicle id="18" type="CAV" depart="18.00">
        <route edges="gneE3 gneE4"/>
    </vehicle>
    <vehicle id="19" type="CAV" depart="19.00">
        <route edges="gneE3 gneE4"/>
    </vehicle>
    <vehicle id="21" type="CAV" depart="21.00">
        <route edges="-gneE4 -gneE3"/>
    </vehicle>
    <vehicle id="22" type="CAV" depart="22.00">
        <route edges="-gneE4 -gneE2"/>
    </vehicle>
    <vehicle id="23" type="CAV" depart="23.00">
        <route edges="-gneE4 -gneE3"/>
    </vehicle>
    <vehicle id="24" type="CAV" depart="24.00">
        <route edges="gneE2 -gneE3"/>
    </vehicle>
    <vehicle id="25" type="CAV" depart="25.00">
        <route edges="-gneE5 -gneE2"/>
    </vehicle>
    <vehicle id="27" type="CAV" depart="27.00">
        <route edges="gneE2 gneE4"/>
    </vehicle>
    <vehicle id="29" type="CAV" depart="29.00">
        <route edges="-gneE4 -gneE3"/>
    </vehicle>
    <vehicle id="30" type="CAV" depart="30.00">
        <route edges="gneE3 gneE4"/>
    </vehicle>
    <vehicle id="31" type="CAV" depart="31.00">
        <route edges="gneE2 gneE4"/>
    </vehicle>
    <vehicle id="32" type="CAV" depart="32.00">
        <route edges="gneE3 gneE5"/>
    </vehicle>
    <vehicle id="33" type="CAV" depart="33.00">
        <route edges="-gneE4 -gneE2"/>
    </vehicle>
    <vehicle id="34" type="CAV" depart="34.00">
        <route edges="-gneE5 -gneE3"/>
    </vehicle>
    <vehicle id="35" type="CAV" depart="35.00">
        <route edges="-gneE4 gneE5"/>
    </vehicle>
    <vehicle id="37" type="CAV" depart="37.00">
        <route edges="gneE2 -gneE3"/>
    </vehicle>
    <vehicle id="39" type="CAV" depart="39.00">
        <route edges="-gneE5 -gneE2"/>
    </vehicle>
    <vehicle id="40" type="CAV" depart="40.00">
        <route edges="gneE2 -gneE3"/>
    </vehicle>
    <vehicle id="41" type="CAV" depart="41.00">
        <route edges="gneE2 gneE5"/>
    </vehicle>
    <vehicle id="42" type="CAV" depart="42.00">
        <route edges="-gneE5 -gneE2"/>
    </vehicle>
    <vehicle id="43" type="CAV" depart="43.00">
        <route edges="gneE3 gneE4"/>
    </vehicle>
    <vehicle id="44" type="CAV" depart="44.00">
        <route edges="-gneE4 -gneE2"/>
    </vehicle>
    <vehicle id="47" type="CAV" depart="47.00">
        <route edges="-gneE4 -gneE3"/>
    </vehicle>
    <vehicle id="48" type="CAV" depart="48.00">
        <route edges="gneE3 gneE4"/>
    </vehicle>
    <vehicle id="49" type="CAV" depart="49.00">
        <route edges="gneE3 gneE5"/>
    </vehicle>
    <vehicle id="51" type="CAV" depart="51.00">
        <route edges="gneE2 gneE4"/>
    </vehicle>
    <vehicle id="52" type="CAV" depart="52.00">
        <route edges="-gneE5 gneE4"/>
    </vehicle>
    <vehicle id="53" type="CAV" depart="53.00">
        <route edges="-gneE4 -gneE3"/>
    </vehicle>
    <vehicle id="57" type="CAV" depart="57.00">
        <route edges="gneE3 gneE5"/>
    </vehicle>
    <vehicle id="58" type="CAV" depart="58.00">
        <route edges="-gneE5 gneE4"/>
    </vehicle>
    <vehicle id="60" type="CAV" depart="60.00">
        <route edges="gneE3 gneE4"/>
    </vehicle>
    <vehicle id="61" type="CAV" depart="61.00">
        <route edges="gneE3 gneE4"/>
    </vehicle>
    <vehicle id="62" type="CAV" depart="62.00">
        <route edges="-gneE4 -gneE3"/>
    </vehicle>
    <vehicle id="63" type="CAV" depart="63.00">
        <route edges="-gneE4 gneE5"/>
    </vehicle>
    <vehicle id="64" type="CAV" depart="64.00">
        <route edges="gneE3 gneE5"/>
    </vehicle>
    <vehicle id="65" type="CAV" depart="65.00">
        <route edges="-gneE5 -gneE2"/>
    </vehicle>
    <vehicle id="66" type="CAV" depart="66.00">
        <route edges="gneE3 gneE5"/>
    </vehicle>
    <vehicle id="67" type="CAV" depart="67.00">
        <route edges="-gneE4 -gneE3"/>
    </vehicle>
    <vehicle id="68" type="CAV" depart="68.00">
        <route edges="-gneE4 gneE5"/>
    </vehicle>
    <vehicle id="69" type="CAV" depart="69.00">
        <route edges="gneE3 -gneE2"/>
    </vehicle>
    <vehicle id="70" type="CAV" depart="70.00">
        <route edges="-gneE5 gneE4"/>
    </vehicle>
    <vehicle id="72" type="CAV" depart="72.00">
        <route edges="-gneE5 -gneE2"/>
    </vehicle>
    <vehicle id="73" type="CAV" depart="73.00">
        <route edges="gneE2 gneE4"/>
    </vehicle>
    <vehicle id="74" type="CAV" depart="74.00">
        <route edges="-gneE4 -gneE3"/>
    </vehicle>
    <vehicle id="75" type="CAV" depart="75.00">
        <route edges="gneE3 gneE4"/>
    </vehicle>
    <vehicle id="76" type="CAV" depart="76.00">
        <route edges="-gneE5 gneE4"/>
    </vehicle>
    <vehicle id="77" type="CAV" depart="77.00">
        <route edges="-gneE4 -gneE2"/>
    </vehicle>
    <vehicle id="78" type="CAV" depart="78.00">
        <route edges="-gneE5 gneE4"/>
    </vehicle>
    <vehicle id="79" type="CAV" depart="79.00">
        <route edges="-gneE4 -gneE2"/>
    </vehicle>
    <vehicle id="81" type="CAV" depart="81.00">
        <route edges="-gneE4 gneE5"/>
    </vehicle>
    <vehicle id="82" type="CAV" depart="82.00">
        <route edges="gneE3 -gneE2"/>
    </vehicle>
    <vehicle id="84" type="CAV" depart="84.00">
        <route edges="-gneE4 -gneE2"/>
    </vehicle>
    <vehicle id="85" type="CAV" depart="85.00">
        <route edges="gneE3 gneE4"/>
    </vehicle>
    <vehicle id="87" type="CAV" depart="87.00">
        <route edges="gneE3 -gneE2"/>
    </vehicle>
    <vehicle id="88" type="CAV" depart="88.00">
        <route edges="-gneE4 -gneE3"/>
    </vehicle>
    <vehicle id="89" type="CAV" depart="89.00">
        <route edges="-gneE5 -gneE3"/>
    </vehicle>
    <vehicle id="90" type="CAV" depart="90.00">
        <route edges="gneE2 gneE4"/>
    </vehicle>
    <vehicle id="91" type="CAV" depart="91.00">
        <route edges="gneE3 -gneE2"/>
    </vehicle>
    <vehicle id="92" type="CAV" depart="92.00">
        <route edges="-gneE5 -gneE3"/>
    </vehicle>
    <vehicle id="93" type="CAV" depart="93.00">
        <route edges="gneE3 -gneE2"/>
    </vehicle>
    <vehicle id="94" type="CAV" depart="94.00">
        <route edges="-gneE4 -gneE3"/>
    </vehicle>
    <vehicle id="95" type="CAV" depart="95.00">
        <route edges="-gneE5 -gneE3"/>
    </vehicle>
    <vehicle id="96" type="CAV" depart="96.00">
        <route edges="-gneE4 gneE5"/>
    </vehicle>
    <vehicle id="99" type="CAV" depart="99.00">
        <route edges="gneE3 gneE5"/>
    </vehicle>
    <vehicle id="100" type="CAV" depart="100.00">
        <route edges="gneE3 gneE5"/>
    </vehicle>
    <vehicle id="101" type="CAV" depart="101.00">
        <route edges="gneE3 -gneE2"/>
    </vehicle>
    <vehicle id="102" type="CAV" depart="102.00">
        <route edges="-gneE5 -gneE2"/>
    </vehicle>
    <vehicle id="103" type="CAV" depart="103.00">
        <route edges="-gneE5 -gneE2"/>
    </vehicle>
    <vehicle id="106" type="CAV" depart="106.00">
        <route edges="-gneE5 -gneE3"/>
    </vehicle>
    <vehicle id="107" type="CAV" depart="107.00">
        <route edges="gneE3 gneE5"/>
    </vehicle>
    <vehicle id="108" type="CAV" depart="108.00">
        <route edges="gneE2 gneE4"/>
    </vehicle>
    <vehicle id="109" type="CAV" depart="109.00">
        <route edges="-gneE4 -gneE3"/>
    </vehicle>
    <vehicle id="110" type="CAV" depart="110.00">
        <route edges="gneE3 gneE4"/>
    </vehicle>
    <vehicle id="111" type="CAV" depart="111.00">
        <route edges="gneE2 gneE4"/>
    </vehicle>
    <vehicle id="113" type="CAV" depart="113.00">
        <route edges="gneE2 gneE5"/>
    </vehicle>
    <vehicle id="114" type="CAV" depart="114.00">
        <route edges="-gneE4 gneE5"/>
    </vehicle>
    <vehicle id="115" type="CAV" depart="115.00">
        <route edges="-gneE4 -gneE2"/>
    </vehicle>
    <vehicle id="116" type="CAV" depart="116.00">
        <route edges="gneE2 gneE4"/>
    </vehicle>
    <vehicle id="117" type="CAV" depart="117.00">
        <route edges="-gneE4 -gneE2"/>
    </vehicle>
    <vehicle id="118" type="CAV" depart="118.00">
        <route edges="gneE3 -gneE2"/>
    </vehicle>
    <vehicle id="119" type="CAV" depart="119.00">
        <route edges="gneE2 gneE4"/>
    </vehicle>
    <vehicle id="120" type="CAV" depart="120.00">
        <route edges="-gneE5 gneE4"/>
    </vehicle>
    <vehicle id="121" type="CAV" depart="121.00">
        <route edges="gneE2 gneE5"/>
    </vehicle>
    <vehicle id="123" type="CAV" depart="123.00">
        <route edges="-gneE4 -gneE3"/>
    </vehicle>
    <vehicle id="124" type="CAV" depart="124.00">
        <route edges="gneE2 -gneE3"/>
    </vehicle>
    <vehicle id="126" type="CAV" depart="126.00">
        <route edges="-gneE4 -gneE3"/>
    </vehicle>
    <vehicle id="127" type="CAV" depart="127.00">
        <route edges="gneE3 gneE5"/>
    </vehicle>
    <vehicle id="128" type="CAV" depart="128.00">
        <route edges="-gneE4 -gneE2"/>
    </vehicle>
    <vehicle id="130" type="CAV" depart="130.00">
        <route edges="gneE3 gneE5"/>
    </vehicle>
    <vehicle id="131" type="CAV" depart="131.00">
        <route edges="-gneE5 -gneE2"/>
    </vehicle>
    <vehicle id="132" type="CAV" depart="132.00">
        <route edges="gneE3 gneE4"/>
    </vehicle>
    <vehicle id="133" type="CAV" depart="133.00">
        <route edges="gneE2 gneE5"/>
    </vehicle>
    <vehicle id="136" type="CAV" depart="136.00">
        <route edges="gneE2 gneE5"/>
    </vehicle>
    <vehicle id="137" type="CAV" depart="137.00">
        <route edges="-gneE4 -gneE2"/>
    </vehicle>
    <vehicle id="139" type="CAV" depart="139.00">
        <route edges="-gneE5 gneE4"/>
    </vehicle>
    <vehicle id="141" type="CAV" depart="141.00">
        <route edges="gneE2 -gneE3"/>
    </vehicle>
    <vehicle id="143" type="CAV" depart="143.00">
        <route edges="gneE3 -gneE2"/>
    </vehicle>
    <vehicle id="144" type="CAV" depart="144.00">
        <route edges="-gneE5 -gneE3"/>
    </vehicle>
    <vehicle id="145" type="CAV" depart="145.00">
        <route edges="-gneE4 gneE5"/>
    </vehicle>
    <vehicle id="146" type="CAV" depart="146.00">
        <route edges="gneE2 -gneE3"/>
    </vehicle>
    <vehicle id="147" type="CAV" depart="147.00">
        <route edges="gneE2 gneE4"/>
    </vehicle>
    <vehicle id="148" type="CAV" depart="148.00">
        <route edges="-gneE5 -gneE2"/>
    </vehicle>
    <vehicle id="149" type="CAV" depart="149.00">
        <route edges="-gneE4 gneE5"/>
    </vehicle>
    <vehicle id="150" type="CAV" depart="150.00">
        <route edges="gneE3 gneE4"/>
    </vehicle>
    <vehicle id="151" type="CAV" depart="151.00">
        <route edges="gneE3 gneE4"/>
    </vehicle>
    <vehicle id="152" type="CAV" depart="152.00">
        <route edges="-gneE4 -gneE2"/>
    </vehicle>
    <vehicle id="154" type="CAV" depart="154.00">
        <route edges="gneE3 gneE5"/>
    </vehicle>
    <vehicle id="155" type="CAV" depart="155.00">
        <route edges="gneE3 -gneE2"/>
    </vehicle>
    <vehicle id="156" type="CAV" depart="156.00">
        <route edges="-gneE4 -gneE2"/>
    </vehicle>
    <vehicle id="157" type="CAV" depart="157.00">
        <route edges="gneE3 gneE5"/>
    </vehicle>
    <vehicle id="158" type="CAV" depart="158.00">
        <route edges="-gneE5 gneE4"/>
    </vehicle>
    <vehicle id="159" type="CAV" depart="159.00">
        <route edges="-gneE4 gneE5"/>
    </vehicle>
    <vehicle id="160" type="CAV" depart="160.00">
        <route edges="gneE3 gneE5"/>
    </vehicle>
    <vehicle id="161" type="CAV" depart="161.00">
        <route edges="gneE3 gneE5"/>
    </vehicle>
    <vehicle id="164" type="CAV" depart="164.00">
        <route edges="gneE3 gneE5"/>
    </vehicle>
    <vehicle id="166" type="CAV" depart="166.00">
        <route edges="gneE3 -gneE2"/>
    </vehicle>
    <vehicle id="167" type="CAV" depart="167.00">
        <route edges="gneE3 gneE5"/>
    </vehicle>
    <vehicle id="168" type="CAV" depart="168.00">
        <route edges="-gneE4 gneE5"/>
    </vehicle>
    <vehicle id="169" type="CAV" depart="169.00">
        <route edges="-gneE5 -gneE3"/>
    </vehicle>
    <vehicle id="170" type="CAV" depart="170.00">
        <route edges="gneE3 -gneE2"/>
    </vehicle>
    <vehicle id="171" type="CAV" depart="171.00">
        <route edges="-gneE4 -gneE2"/>
    </vehicle>
    <vehicle id="174" type="CAV" depart="174.00">
        <route edges="gneE2 -gneE3"/>
    </vehicle>
    <vehicle id="175" type="CAV" depart="175.00">
        <route edges="gneE3 gneE4"/>
    </vehicle>
    <vehicle id="176" type="CAV" depart="176.00">
        <route edges="gneE3 -gneE2"/>
    </vehicle>
    <vehicle id="177" type="CAV" depart="177.00">
        <route edges="gneE3 -gneE2"/>
    </vehicle>
    <vehicle id="179" type="CAV" depart="179.00">
        <route edges="-gneE4 -gneE3"/>
    </vehicle>
    <vehicle id="180" type="CAV" depart="180.00">
        <route edges="gneE2 -gneE3"/>
    </vehicle>
    <vehicle id="181" type="CAV" depart="181.00">
        <route edges="gneE2 gneE4"/>
    </vehicle>
    <vehicle id="182" type="CAV" depart="182.00">
        <route edges="-gneE5 gneE4"/>
    </vehicle>
    <vehicle id="183" type="CAV" depart="183.00">
        <route edges="-gneE5 gneE4"/>
    </vehicle>
    <vehicle id="184" type="CAV" depart="184.00">
        <route edges="-gneE4 gneE5"/>
    </vehicle>
    <vehicle id="185" type="CAV" depart="185.00">
        <route edges="gneE2 gneE4"/>
    </vehicle>
    <vehicle id="186" type="CAV" depart="186.00">
        <route edges="gneE2 gneE4"/>
    </vehicle>
    <vehicle id="187" type="CAV" depart="187.00">
        <route edges="-gneE5 -gneE2"/>
    </vehicle>
    <vehicle id="188" type="CAV" depart="188.00">
        <route edges="gneE2 -gneE3"/>
    </vehicle>
    <vehicle id="190" type="CAV" depart="190.00">
        <route edges="gneE2 -gneE3"/>
    </vehicle>
    <vehicle id="191" type="CAV" depart="191.00">
        <route edges="-gneE5 -gneE3"/>
    </vehicle>
    <vehicle id="192" type="CAV" depart="192.00">
        <route edges="-gneE5 -gneE3"/>
    </vehicle>
    <vehicle id="193" type="CAV" depart="193.00">
        <route edges="-gneE4 -gneE3"/>
    </vehicle>
    <vehicle id="194" type="CAV" depart="194.00">
        <route edges="gneE3 gneE4"/>
    </vehicle>
    <vehicle id="195" type="CAV" depart="195.00">
        <route edges="gneE3 gneE4"/>
    </vehicle>
    <vehicle id="196" type="CAV" depart="196.00">
        <route edges="-gneE5 gneE4"/>
    </vehicle>
    <vehicle id="197" type="CAV" depart="197.00">
        <route edges="-gneE4 -gneE3"/>
    </vehicle>
    <vehicle id="198" type="CAV" depart="198.00">
        <route edges="-gneE5 gneE4"/>
    </vehicle>
    <vehicle id="199" type="CAV" depart="199.00">
        <route edges="gneE2 -gneE3"/>
    </vehicle>
    <vehicle id="200" type="CAV" depart="200.00">
        <route edges="-gneE5 -gneE2"/>
    </vehicle>
    <vehicle id="202" type="CAV" depart="202.00">
        <route edges="gneE3 -gneE2"/>
    </vehicle>
    <vehicle id="204" type="CAV" depart="204.00">
        <route edges="gneE2 -gneE3"/>
    </vehicle>
    <vehicle id="205" type="CAV" depart="205.00">
        <route edges="gneE3 gneE5"/>
    </vehicle>
    <vehicle id="207" type="CAV" depart="207.00">
        <route edges="-gneE4 -gneE2"/>
    </vehicle>
    <vehicle id="208" type="CAV" depart="208.00">
        <route edges="-gneE4 -gneE3"/>
    </vehicle>
    <vehicle id="209" type="CAV" depart="209.00">
        <route edges="gneE3 -gneE2"/>
    </vehicle>
    <vehicle id="210" type="CAV" depart="210.00">
        <route edges="-gneE5 gneE4"/>
    </vehicle>
    <vehicle id="212" type="CAV" depart="212.00">
        <route edges="-gneE5 -gneE2"/>
    </vehicle>
    <vehicle id="214" type="CAV" depart="214.00">
        <route edges="gneE3 gneE5"/>
    </vehicle>
    <vehicle id="215" type="CAV" depart="215.00">
        <route edges="-gneE4 -gneE3"/>
    </vehicle>
    <vehicle id="216" type="CAV" depart="216.00">
        <route edges="-gneE4 gneE5"/>
    </vehicle>
    <vehicle id="218" type="CAV" depart="218.00">
        <route edges="-gneE4 gneE5"/>
    </vehicle>
    <vehicle id="220" type="CAV" depart="220.00">
        <route edges="gneE2 gneE5"/>
    </vehicle>
    <vehicle id="221" type="CAV" depart="221.00">
        <route edges="gneE2 gneE5"/>
    </vehicle>
    <vehicle id="222" type="CAV" depart="222.00">
        <route edges="gneE3 gneE4"/>
    </vehicle>
    <vehicle id="223" type="CAV" depart="223.00">
        <route edges="gneE2 gneE4"/>
    </vehicle>
    <vehicle id="224" type="CAV" depart="224.00">
        <route edges="gneE3 gneE4"/>
    </vehicle>
    <vehicle id="225" type="CAV" depart="225.00">
        <route edges="gneE3 gneE4"/>
    </vehicle>
    <vehicle id="226" type="CAV" depart="226.00">
        <route edges="-gneE5 -gneE3"/>
    </vehicle>
    <vehicle id="228" type="CAV" depart="228.00">
        <route edges="gneE3 gneE4"/>
    </vehicle>
    <vehicle id="229" type="CAV" depart="229.00">
        <route edges="gneE2 -gneE3"/>
    </vehicle>
    <vehicle id="230" type="CAV" depart="230.00">
        <route edges="-gneE4 -gneE3"/>
    </vehicle>
    <vehicle id="231" type="CAV" depart="231.00">
        <route edges="-gneE5 -gneE3"/>
    </vehicle>
    <vehicle id="235" type="CAV" depart="235.00">
        <route edges="-gneE5 gneE4"/>
    </vehicle>
    <vehicle id="236" type="CAV" depart="236.00">
        <route edges="-gneE5 -gneE2"/>
    </vehicle>
    <vehicle id="238" type="CAV" depart="238.00">
        <route edges="gneE2 gneE4"/>
    </vehicle>
    <vehicle id="239" type="CAV" depart="239.00">
        <route edges="gneE3 gneE5"/>
    </vehicle>
    <vehicle id="240" type="CAV" depart="240.00">
        <route edges="-gneE5 -gneE2"/>
    </vehicle>
    <vehicle id="242" type="CAV" depart="242.00">
        <route edges="gneE3 gneE5"/>
    </vehicle>
    <vehicle id="243" type="CAV" depart="243.00">
        <route edges="-gneE5 gneE4"/>
    </vehicle>
    <vehicle id="244" type="CAV" depart="244.00">
        <route edges="gneE2 gneE4"/>
    </vehicle>
    <vehicle id="245" type="CAV" depart="245.00">
        <route edges="-gneE4 -gneE2"/>
    </vehicle>
    <vehicle id="246" type="CAV" depart="246.00">
        <route edges="-gneE5 -gneE2"/>
    </vehicle>
    <vehicle id="247" type="CAV" depart="247.00">
        <route edges="-gneE5 gneE4"/>
    </vehicle>
    <vehicle id="248" type="CAV" depart="248.00">
        <route edges="-gneE5 -gneE2"/>
    </vehicle>
    <vehicle id="249" type="CAV" depart="249.00">
        <route edges="-gneE5 -gneE2"/>
    </vehicle>
    <vehicle id="251" type="CAV" depart="251.00">
        <route edges="-gneE5 gneE4"/>
    </vehicle>
    <vehicle id="253" type="CAV" depart="253.00">
        <route edges="-gneE4 -gneE3"/>
    </vehicle>
    <vehicle id="254" type="CAV" depart="254.00">
        <route edges="-gneE4 -gneE3"/>
    </vehicle>
    <vehicle id="255" type="CAV" depart="255.00">
        <route edges="-gneE4 -gneE3"/>
    </vehicle>
    <vehicle id="257" type="CAV" depart="257.00">
        <route edges="gneE3 gneE5"/>
    </vehicle>
    <vehicle id="258" type="CAV" depart="258.00">
        <route edges="-gneE5 -gneE2"/>
    </vehicle>
    <vehicle id="261" type="CAV" depart="261.00">
        <route edges="gneE2 gneE5"/>
    </vehicle>
    <vehicle id="262" type="CAV" depart="262.00">
        <route edges="gneE2 gneE5"/>
    </vehicle>
    <vehicle id="263" type="CAV" depart="263.00">
        <route edges="gneE3 -gneE2"/>
    </vehicle>
    <vehicle id="264" type="CAV" depart="264.00">
        <route edges="-gneE4 -gneE2"/>
    </vehicle>
    <vehicle id="267" type="CAV" depart="267.00">
        <route edges="gneE2 gneE5"/>
    </vehicle>
    <vehicle id="270" type="CAV" depart="270.00">
        <route edges="gneE3 gneE5"/>
    </vehicle>
    <vehicle id="271" type="CAV" depart="271.00">
        <route edges="-gneE4 -gneE2"/>
    </vehicle>
    <vehicle id="272" type="CAV" depart="272.00">
        <route edges="-gneE5 gneE4"/>
    </vehicle>
    <vehicle id="275" type="CAV" depart="275.00">
        <route edges="gneE2 gneE4"/>
    </vehicle>
    <vehicle id="276" type="CAV" depart="276.00">
        <route edges="-gneE4 gneE5"/>
    </vehicle>
    <vehicle id="277" type="CAV" depart="277.00">
        <route edges="gneE3 gneE4"/>
    </vehicle>
    <vehicle id="278" type="CAV" depart="278.00">
        <route edges="-gneE4 gneE5"/>
    </vehicle>
    <vehicle id="280" type="CAV" depart="280.00">
        <route edges="-gneE5 -gneE3"/>
    </vehicle>
    <vehicle id="281" type="CAV" depart="281.00">
        <route edges="gneE2 -gneE3"/>
    </vehicle>
    <vehicle id="282" type="CAV" depart="282.00">
        <route edges="gneE3 gneE5"/>
    </vehicle>
    <vehicle id="283" type="CAV" depart="283.00">
        <route edges="-gneE4 gneE5"/>
    </vehicle>
    <vehicle id="284" type="CAV" depart="284.00">
        <route edges="gneE2 gneE5"/>
    </vehicle>
    <vehicle id="285" type="CAV" depart="285.00">
        <route edges="gneE2 -gneE3"/>
    </vehicle>
    <vehicle id="286" type="CAV" depart="286.00">
        <route edges="gneE2 gneE5"/>
    </vehicle>
    <vehicle id="288" type="CAV" depart="288.00">
        <route edges="gneE2 -gneE3"/>
    </vehicle>
    <vehicle id="289" type="CAV" depart="289.00">
        <route edges="-gneE5 gneE4"/>
    </vehicle>
    <vehicle id="291" type="CAV" depart="291.00">
        <route edges="gneE3 -gneE2"/>
    </vehicle>
    <vehicle id="292" type="CAV" depart="292.00">
        <route edges="gneE3 -gneE2"/>
    </vehicle>
    <vehicle id="293" type="CAV" depart="293.00">
        <route edges="-gneE5 gneE4"/>
    </vehicle>
    <vehicle id="294" type="CAV" depart="294.00">
        <route edges="-gneE5 -gneE2"/>
    </vehicle>
    <vehicle id="295" type="CAV" depart="295.00">
        <route edges="gneE3 -gneE2"/>
    </vehicle>
    <vehicle id="296" type="CAV" depart="296.00">
        <route edges="-gneE4 gneE5"/>
    </vehicle>
    <vehicle id="298" type="CAV" depart="298.00">
        <route edges="gneE2 -gneE3"/>
    </vehicle>
    <vehicle id="299" type="CAV" depart="299.00">
        <route edges="-gneE4 gneE5"/>
    </vehicle>
    <vehicle id="302" type="CAV" depart="302.00">
        <route edges="gneE2 gneE4"/>
    </vehicle>
    <vehicle id="304" type="CAV" depart="304.00">
        <route edges="-gneE4 -gneE2"/>
    </vehicle>
    <vehicle id="305" type="CAV" depart="305.00">
        <route edges="gneE2 -gneE3"/>
    </vehicle>
    <vehicle id="306" type="CAV" depart="306.00">
        <route edges="gneE2 -gneE3"/>
    </vehicle>
    <vehicle id="307" type="CAV" depart="307.00">
        <route edges="gneE2 -gneE3"/>
    </vehicle>
    <vehicle id="308" type="CAV" depart="308.00">
        <route edges="gneE2 -gneE3"/>
    </vehicle>
    <vehicle id="309" type="CAV" depart="309.00">
        <route edges="gneE2 -gneE3"/>
    </vehicle>
    <vehicle id="310" type="CAV" depart="310.00">
        <route edges="-gneE5 -gneE2"/>
    </vehicle>
    <vehicle id="311" type="CAV" depart="311.00">
        <route edges="-gneE4 -gneE2"/>
    </vehicle>
    <vehicle id="312" type="CAV" depart="312.00">
        <route edges="gneE2 gneE5"/>
    </vehicle>
    <vehicle id="313" type="CAV" depart="313.00">
        <route edges="-gneE4 -gneE2"/>
    </vehicle>
    <vehicle id="314" type="CAV" depart="314.00">
        <route edges="-gneE5 gneE4"/>
    </vehicle>
    <vehicle id="315" type="CAV" depart="315.00">
        <route edges="gneE3 gneE4"/>
    </vehicle>
    <vehicle id="316" type="CAV" depart="316.00">
        <route edges="-gneE5 -gneE2"/>
    </vehicle>
    <vehicle id="317" type="CAV" depart="317.00">
        <route edges="-gneE4 -gneE2"/>
    </vehicle>
    <vehicle id="318" type="CAV" depart="318.00">
        <route edges="-gneE4 -gneE2"/>
    </vehicle>
    <vehicle id="319" type="CAV" depart="319.00">
        <route edges="gneE2 -gneE3"/>
    </vehicle>
    <vehicle id="320" type="CAV" depart="320.00">
        <route edges="gneE3 gneE4"/>
    </vehicle>
    <vehicle id="323" type="CAV" depart="323.00">
        <route edges="gneE3 gneE4"/>
    </vehicle>
    <vehicle id="324" type="CAV" depart="324.00">
        <route edges="-gneE5 -gneE3"/>
    </vehicle>
    <vehicle id="325" type="CAV" depart="325.00">
        <route edges="-gneE4 -gneE2"/>
    </vehicle>
    <vehicle id="329" type="CAV" depart="329.00">
        <route edges="-gneE4 -gneE2"/>
    </vehicle>
    <vehicle id="330" type="CAV" depart="330.00">
        <route edges="gneE2 -gneE3"/>
    </vehicle>
    <vehicle id="331" type="CAV" depart="331.00">
        <route edges="gneE3 -gneE2"/>
    </vehicle>
    <vehicle id="332" type="CAV" depart="332.00">
        <route edges="gneE3 gneE4"/>
    </vehicle>
    <vehicle id="333" type="CAV" depart="333.00">
        <route edges="gneE3 -gneE2"/>
    </vehicle>
    <vehicle id="334" type="CAV" depart="334.00">
        <route edges="gneE2 -gneE3"/>
    </vehicle>
    <vehicle id="337" type="CAV" depart="337.00">
        <route edges="gneE2 gneE4"/>
    </vehicle>
    <vehicle id="338" type="CAV" depart="338.00">
        <route edges="gneE2 gneE5"/>
    </vehicle>
    <vehicle id="339" type="CAV" depart="339.00">
        <route edges="-gneE4 -gneE2"/>
    </vehicle>
    <vehicle id="341" type="CAV" depart="341.00">
        <route edges="-gneE4 -gneE2"/>
    </vehicle>
    <vehicle id="342" type="CAV" depart="342.00">
        <route edges="-gneE4 -gneE3"/>
    </vehicle>
    <vehicle id="343" type="CAV" depart="343.00">
        <route edges="gneE2 -gneE3"/>
    </vehicle>
    <vehicle id="345" type="CAV" depart="345.00">
        <route edges="gneE2 -gneE3"/>
    </vehicle>
    <vehicle id="346" type="CAV" depart="346.00">
        <route edges="gneE2 gneE5"/>
    </vehicle>
    <vehicle id="347" type="CAV" depart="347.00">
        <route edges="gneE3 gneE4"/>
    </vehicle>
    <vehicle id="348" type="CAV" depart="348.00">
        <route edges="gneE2 gneE5"/>
    </vehicle>
    <vehicle id="349" type="CAV" depart="349.00">
        <route edges="-gneE5 gneE4"/>
    </vehicle>
    <vehicle id="350" type="CAV" depart="350.00">
        <route edges="gneE2 gneE5"/>
    </vehicle>
    <vehicle id="351" type="CAV" depart="351.00">
        <route edges="gneE3 -gneE2"/>
    </vehicle>
    <vehicle id="352" type="CAV" depart="352.00">
        <route edges="-gneE4 -gneE3"/>
    </vehicle>
    <vehicle id="353" type="CAV" depart="353.00">
        <route edges="gneE2 gneE4"/>
    </vehicle>
    <vehicle id="354" type="CAV" depart="354.00">
        <route edges="-gneE5 -gneE2"/>
    </vehicle>
    <vehicle id="355" type="CAV" depart="355.00">
        <route edges="gneE2 gneE4"/>
    </vehicle>
    <vehicle id="356" type="CAV" depart="356.00">
        <route edges="gneE3 gneE4"/>
    </vehicle>
    <vehicle id="357" type="CAV" depart="357.00">
        <route edges="-gneE5 -gneE2"/>
    </vehicle>
    <vehicle id="358" type="CAV" depart="358.00">
        <route edges="-gneE4 -gneE3"/>
    </vehicle>
    <vehicle id="359" type="CAV" depart="359.00">
        <route edges="-gneE5 -gneE3"/>
    </vehicle>
    <vehicle id="360" type="CAV" depart="360.00">
        <route edges="-gneE4 gneE5"/>
    </vehicle>
    <vehicle id="361" type="CAV" depart="361.00">
        <route edges="gneE3 gneE4"/>
    </vehicle>
    <vehicle id="362" type="CAV" depart="362.00">
        <route edges="gneE3 gneE5"/>
    </vehicle>
    <vehicle id="363" type="CAV" depart="363.00">
        <route edges="gneE2 -gneE3"/>
    </vehicle>
    <vehicle id="364" type="CAV" depart="364.00">
        <route edges="-gneE4 gneE5"/>
    </vehicle>